McPAT (version 1.0 of Aug, 2013) is computing the target processor...
 

McPAT (version 1.0 of Aug, 2013) results  (current print level is 5)
*****************************************************************************************
  Technology 45 nm
  Using Long Channel Devices When Appropriate
  Interconnect metal projection= aggressive interconnect technology projection
  Core clock Rate(MHz) 2660

*****************************************************************************************
Processor: 
  Area = 962.008 mm^2
  Peak Power = 626.073 W
  Total Leakage = 177.215 W
  Peak Dynamic = 448.858 W
  Subthreshold Leakage = 170.358 W
  Subthreshold Leakage with power gating = 73.9956 W
  Gate Leakage = 6.85755 W
  Runtime Dynamic = 148.178 W

  Total Cores: 16 cores 
  Device Type= ITRS high performance device type
    Area = 832.354 mm^2
    Peak Dynamic = 446.155 W
    Subthreshold Leakage = 156.593 W
    Subthreshold Leakage with power gating = 66.4632 W
    Gate Leakage = 6.74505 W
    Runtime Dynamic = 147.721 W

  Total L3s: 
  Device Type= ITRS high performance device type
    Area = 123.815 mm^2
    Peak Dynamic = 0.561456 W
    Subthreshold Leakage = 13.6017 W
    Subthreshold Leakage with power gating = 6.64728 W
    Gate Leakage = 0.0968273 W
    Runtime Dynamic = 0.171289 W

  Total NoCs (Network/Bus): 
  Device Type= ITRS high performance device type
    Area = 5.83965 mm^2
    Peak Dynamic = 2.14129 W
    Subthreshold Leakage = 0.163365 W
    Subthreshold Leakage with power gating = 0.0612617 W
    Gate Leakage = 0.0156661 W
    Runtime Dynamic = 0.285142 W

*****************************************************************************************
Core:
      Area = 52.0221 mm^2
      Peak Dynamic = 28.8752 W
      Subthreshold Leakage = 9.78705 W
      Subthreshold Leakage with power gating = 4.15395 W
      Gate Leakage = 0.421566 W
      Runtime Dynamic = 9.96093 W

      Instruction Fetch Unit:
        Area = 7.57986 mm^2
        Peak Dynamic = 11.6996 W
        Subthreshold Leakage = 1.0522 W
        Subthreshold Leakage with power gating = 0.455066 W
        Gate Leakage = 0.0712372 W
        Runtime Dynamic = 3.29306 W

          Instruction Cache:
            Area = 4.86613 mm^2
            Peak Dynamic = 9.16413 W
            Subthreshold Leakage = 0.486629 W
            Subthreshold Leakage with power gating = 0.22691 W
            Gate Leakage = 0.0421203 W
            Runtime Dynamic = 2.74771 W

          Branch Target Buffer:
            Area = 0.64954 mm^2
            Peak Dynamic = 0.177867 W
            Subthreshold Leakage = 0.0811682 W
            Subthreshold Leakage with power gating = 0.0435357 W
            Gate Leakage = 0.00272758 W
            Runtime Dynamic = 0.0474326 W

          Branch Predictor:
            Area = 0.138516 mm^2
            Peak Dynamic = 0.0597838 W
            Subthreshold Leakage = 0.0199703 W
            Subthreshold Leakage with power gating = 0.0103282 W
            Gate Leakage = 0.000757657 W
            Runtime Dynamic = 0.0154619 W

              Global Predictor:
                Area = 0.0435221 mm^2
                Peak Dynamic = 0.0168831 W
                Subthreshold Leakage = 0.00759719 W
                Subthreshold Leakage with power gating = 0.0039236 W
                Gate Leakage = 0.000278362 W
                Runtime Dynamic = 0.00482573 W

              Local Predictor:
              L1_Local Predictor:
                Area = 0.0257064 mm^2
                Peak Dynamic = 0.0142575 W
                Subthreshold Leakage = 0.00384344 W
                Subthreshold Leakage with power gating = 0.00198631 W
                Gate Leakage = 0.000154548 W
                Runtime Dynamic = 0.00417063 W

              L2_Local Predictor:
                Area = 0.0151917 mm^2
                Peak Dynamic = 0.00527447 W
                Subthreshold Leakage = 0.00181347 W
                Subthreshold Leakage with power gating = 0.000957045 W
                Gate Leakage = 8.00196e-05 W
                Runtime Dynamic = 0.0015967 W

              Chooser:
                Area = 0.0435221 mm^2
                Peak Dynamic = 0.0168831 W
                Subthreshold Leakage = 0.00759719 W
                Subthreshold Leakage with power gating = 0.0039236 W
                Gate Leakage = 0.000278362 W
                Runtime Dynamic = 0.00482573 W

              RAS:
                Area = 0.0105732 mm^2
                Peak Dynamic = 0.0117602 W
                Subthreshold Leakage = 0.000932505 W
                Subthreshold Leakage with power gating = 0.000494733 W
                Gate Leakage = 4.63858e-05 W
                Runtime Dynamic = 0.0016398 W

          Instruction Buffer:
            Area = 0.0226323 mm^2
            Peak Dynamic = 0.606827 W
            Subthreshold Leakage = 0.00151885 W
            Subthreshold Leakage with power gating = 0.000701682 W
            Gate Leakage = 6.83558e-05 W
            Runtime Dynamic = 0.109737 W

          Instruction Decoder:
            Area = 1.85799 mm^2
            Peak Dynamic = 1.37404 W
            Subthreshold Leakage = 0.442943 W
            Subthreshold Leakage with power gating = 0.166104 W
            Gate Leakage = 0.0222493 W
            Runtime Dynamic = 0.372716 W

      Renaming Unit:
        Area = 0.369768 mm^2
        Peak Dynamic = 4.56169 W
        Subthreshold Leakage = 0.070483 W
        Subthreshold Leakage with power gating = 0.0362779 W
        Gate Leakage = 0.00863632 W
        Runtime Dynamic = 0.247587 W

          Int Front End RAT:
            Area = 0.114751 mm^2
            Peak Dynamic = 0.86945 W
            Subthreshold Leakage = 0.00611897 W
            Subthreshold Leakage with power gating = 0.00348781 W
            Gate Leakage = 0.00038343 W
            Runtime Dynamic = 0.219508 W

          FP Front End RAT:
            Area = 0.168486 mm^2
            Peak Dynamic = 3.33511 W
            Subthreshold Leakage = 0.0437281 W
            Subthreshold Leakage with power gating = 0.024925 W
            Gate Leakage = 0.00489731 W
            Runtime Dynamic = 0.00623154 W

          Free List:
            Area = 0.0414755 mm^2
            Peak Dynamic = 0.0401324 W
            Subthreshold Leakage = 0.000670426 W
            Subthreshold Leakage with power gating = 0.000377987 W
            Gate Leakage = 4.15911e-05 W
            Runtime Dynamic = 0.0218473 W

      Load Store Unit:
        Area = 8.80969 mm^2
        Peak Dynamic = 6.09478 W
        Subthreshold Leakage = 0.591622 W
        Subthreshold Leakage with power gating = 0.283406 W
        Gate Leakage = 0.0351387 W
        Runtime Dynamic = 2.83418 W

          Data Cache:
            Area = 6.84535 mm^2
            Peak Dynamic = 5.44873 W
            Subthreshold Leakage = 0.527675 W
            Subthreshold Leakage with power gating = 0.25085 W
            Gate Leakage = 0.0279261 W
            Runtime Dynamic = 2.02596 W

          LoadQ:
            Area = 0.0836782 mm^2
            Peak Dynamic = 0.136256 W
            Subthreshold Leakage = 0.00941961 W
            Subthreshold Leakage with power gating = 0.00536918 W
            Gate Leakage = 0.00059896 W
            Runtime Dynamic = 0.136256 W

          StoreQ:
            Area = 0.322079 mm^2
            Peak Dynamic = 0.335983 W
            Subthreshold Leakage = 0.0345621 W
            Subthreshold Leakage with power gating = 0.0197004 W
            Gate Leakage = 0.00329971 W
            Runtime Dynamic = 0.671966 W

      Memory Management Unit:
        Area = 0.434579 mm^2
        Peak Dynamic = 0.764639 W
        Subthreshold Leakage = 0.0769113 W
        Subthreshold Leakage with power gating = 0.0399462 W
        Gate Leakage = 0.00813591 W
        Runtime Dynamic = 0.332068 W

          Itlb:
            Area = 0.301552 mm^2
            Peak Dynamic = 0.399995 W
            Subthreshold Leakage = 0.0413758 W
            Subthreshold Leakage with power gating = 0.0235842 W
            Gate Leakage = 0.00393464 W
            Runtime Dynamic = 0.21255 W

          Dtlb:
            Area = 0.0879726 mm^2
            Peak Dynamic = 0.119242 W
            Subthreshold Leakage = 0.0155699 W
            Subthreshold Leakage with power gating = 0.00887485 W
            Gate Leakage = 0.00088729 W
            Runtime Dynamic = 0.119518 W

      Execution Unit:
        Area = 8.2042 mm^2
        Peak Dynamic = 5.72116 W
        Subthreshold Leakage = 1.83518 W
        Subthreshold Leakage with power gating = 0.709678 W
        Gate Leakage = 0.122718 W
        Runtime Dynamic = 3.25125 W

          Register Files:
            Area = 0.570804 mm^2
            Peak Dynamic = 0.114015 W
            Subthreshold Leakage = 0.0101387 W
            Subthreshold Leakage with power gating = 0.00423643 W
            Gate Leakage = 0.000622708 W
            Runtime Dynamic = 0.129587 W

              Integer RF:
                Area = 0.362673 mm^2
                Peak Dynamic = 0.112228 W
                Subthreshold Leakage = 0.00614175 W
                Subthreshold Leakage with power gating = 0.00246675 W
                Gate Leakage = 0.00038992 W
                Runtime Dynamic = 0.114152 W

              Floating Point RF:
                Area = 0.208131 mm^2
                Peak Dynamic = 0.0017862 W
                Subthreshold Leakage = 0.00399698 W
                Subthreshold Leakage with power gating = 0.00176968 W
                Gate Leakage = 0.000232788 W
                Runtime Dynamic = 0.015435 W

          Instruction Scheduler:
            Area = 2.17927 mm^2
            Peak Dynamic = 4.84781 W
            Subthreshold Leakage = 0.114878 W
            Subthreshold Leakage with power gating = 0.0641291 W
            Gate Leakage = 0.00730101 W
            Runtime Dynamic = 1.58791 W

              Instruction Window:
                Area = 1.00996 mm^2
                Peak Dynamic = 2.07911 W
                Subthreshold Leakage = 0.0800117 W
                Subthreshold Leakage with power gating = 0.0455351 W
                Gate Leakage = 0.00529112 W
                Runtime Dynamic = 0.737306 W

              FP Instruction Window:
                Area = 0.328073 mm^2
                Peak Dynamic = 1.20978 W
                Subthreshold Leakage = 0.017004 W
                Subthreshold Leakage with power gating = 0.00962066 W
                Gate Leakage = 0.00115349 W
                Runtime Dynamic = 0.425785 W

              ROB:
                Area = 0.841232 mm^2
                Peak Dynamic = 1.55892 W
                Subthreshold Leakage = 0.0178624 W
                Subthreshold Leakage with power gating = 0.00897339 W
                Gate Leakage = 0.000856399 W
                Runtime Dynamic = 0.424818 W

          Integer ALUs (Count: 6 ):
            Area = 0.47087 mm^2
            Peak Dynamic = 0.419421 W
            Subthreshold Leakage = 0.40222 W
            Subthreshold Leakage with power gating = 0.150833 W
            Gate Leakage = 0.0265291 W
            Runtime Dynamic = 0.405424 W

          Floating Point Units (FPUs) (Count: 2 ):
            Area = 4.6585 mm^2
            Peak Dynamic = 0.00945475 W
            Subthreshold Leakage = 0.994829 W
            Subthreshold Leakage with power gating = 0.373061 W
            Gate Leakage = 0.0656156 W
            Runtime Dynamic = 0.308192 W

          Complex ALUs (Mul/Div) (Count: 1 ):
            Area = 0.235435 mm^2
            Peak Dynamic = 0.0016806 W
            Subthreshold Leakage = 0.20111 W
            Subthreshold Leakage with power gating = 0.0754163 W
            Gate Leakage = 0.0132646 W
            Runtime Dynamic = 0.204009 W

          Results Broadcast Bus:
            Area Overhead = 0.0442632 mm^2
            Peak Dynamic = 0.27165 W
            Subthreshold Leakage = 0.0920413 W
            Subthreshold Leakage with power gating = 0.0345155 W
            Gate Leakage = 0.00607074 W
            Runtime Dynamic = 0.616132 W

    L2
    Area = 22.2273 mm^2
    Peak Dynamic = 0.0332405 W
    Subthreshold Leakage = 4.28281 W
    Subthreshold Leakage with power gating = 1.92539 W
    Gate Leakage = 0.0518439 W
    Runtime Dynamic = 0.00277663 W

*****************************************************************************************
Core:
      Area = 52.0221 mm^2
      Peak Dynamic = 28.4274 W
      Subthreshold Leakage = 9.78705 W
      Subthreshold Leakage with power gating = 4.15395 W
      Gate Leakage = 0.421566 W
      Runtime Dynamic = 9.25315 W

      Instruction Fetch Unit:
        Area = 7.57986 mm^2
        Peak Dynamic = 11.6996 W
        Subthreshold Leakage = 1.0522 W
        Subthreshold Leakage with power gating = 0.455066 W
        Gate Leakage = 0.0712372 W
        Runtime Dynamic = 3.03955 W

          Instruction Cache:
            Area = 4.86613 mm^2
            Peak Dynamic = 9.16413 W
            Subthreshold Leakage = 0.486629 W
            Subthreshold Leakage with power gating = 0.22691 W
            Gate Leakage = 0.0421203 W
            Runtime Dynamic = 2.53554 W

          Branch Target Buffer:
            Area = 0.64954 mm^2
            Peak Dynamic = 0.177867 W
            Subthreshold Leakage = 0.0811682 W
            Subthreshold Leakage with power gating = 0.0435357 W
            Gate Leakage = 0.00272758 W
            Runtime Dynamic = 0.0437833 W

          Branch Predictor:
            Area = 0.138516 mm^2
            Peak Dynamic = 0.0597838 W
            Subthreshold Leakage = 0.0199703 W
            Subthreshold Leakage with power gating = 0.0103282 W
            Gate Leakage = 0.000757657 W
            Runtime Dynamic = 0.0142744 W

              Global Predictor:
                Area = 0.0435221 mm^2
                Peak Dynamic = 0.0168831 W
                Subthreshold Leakage = 0.00759719 W
                Subthreshold Leakage with power gating = 0.0039236 W
                Gate Leakage = 0.000278362 W
                Runtime Dynamic = 0.00445444 W

              Local Predictor:
              L1_Local Predictor:
                Area = 0.0257064 mm^2
                Peak Dynamic = 0.0142575 W
                Subthreshold Leakage = 0.00384344 W
                Subthreshold Leakage with power gating = 0.00198631 W
                Gate Leakage = 0.000154548 W
                Runtime Dynamic = 0.00384973 W

              L2_Local Predictor:
                Area = 0.0151917 mm^2
                Peak Dynamic = 0.00527447 W
                Subthreshold Leakage = 0.00181347 W
                Subthreshold Leakage with power gating = 0.000957045 W
                Gate Leakage = 8.00196e-05 W
                Runtime Dynamic = 0.00147384 W

              Chooser:
                Area = 0.0435221 mm^2
                Peak Dynamic = 0.0168831 W
                Subthreshold Leakage = 0.00759719 W
                Subthreshold Leakage with power gating = 0.0039236 W
                Gate Leakage = 0.000278362 W
                Runtime Dynamic = 0.00445444 W

              RAS:
                Area = 0.0105732 mm^2
                Peak Dynamic = 0.0117602 W
                Subthreshold Leakage = 0.000932505 W
                Subthreshold Leakage with power gating = 0.000494733 W
                Gate Leakage = 4.63858e-05 W
                Runtime Dynamic = 0.00151576 W

          Instruction Buffer:
            Area = 0.0226323 mm^2
            Peak Dynamic = 0.606827 W
            Subthreshold Leakage = 0.00151885 W
            Subthreshold Leakage with power gating = 0.000701682 W
            Gate Leakage = 6.83558e-05 W
            Runtime Dynamic = 0.101436 W

          Instruction Decoder:
            Area = 1.85799 mm^2
            Peak Dynamic = 1.37404 W
            Subthreshold Leakage = 0.442943 W
            Subthreshold Leakage with power gating = 0.166104 W
            Gate Leakage = 0.0222493 W
            Runtime Dynamic = 0.344523 W

      Renaming Unit:
        Area = 0.369768 mm^2
        Peak Dynamic = 4.56169 W
        Subthreshold Leakage = 0.070483 W
        Subthreshold Leakage with power gating = 0.0362779 W
        Gate Leakage = 0.00863632 W
        Runtime Dynamic = 0.22934 W

          Int Front End RAT:
            Area = 0.114751 mm^2
            Peak Dynamic = 0.86945 W
            Subthreshold Leakage = 0.00611897 W
            Subthreshold Leakage with power gating = 0.00348781 W
            Gate Leakage = 0.00038343 W
            Runtime Dynamic = 0.202908 W

          FP Front End RAT:
            Area = 0.168486 mm^2
            Peak Dynamic = 3.33511 W
            Subthreshold Leakage = 0.0437281 W
            Subthreshold Leakage with power gating = 0.024925 W
            Gate Leakage = 0.00489731 W
            Runtime Dynamic = 0.00623154 W

          Free List:
            Area = 0.0414755 mm^2
            Peak Dynamic = 0.0401324 W
            Subthreshold Leakage = 0.000670426 W
            Subthreshold Leakage with power gating = 0.000377987 W
            Gate Leakage = 4.15911e-05 W
            Runtime Dynamic = 0.0202004 W

      Load Store Unit:
        Area = 8.80969 mm^2
        Peak Dynamic = 5.73121 W
        Subthreshold Leakage = 0.591622 W
        Subthreshold Leakage with power gating = 0.283406 W
        Gate Leakage = 0.0351387 W
        Runtime Dynamic = 2.62215 W

          Data Cache:
            Area = 6.84535 mm^2
            Peak Dynamic = 5.13352 W
            Subthreshold Leakage = 0.527675 W
            Subthreshold Leakage with power gating = 0.25085 W
            Gate Leakage = 0.0279261 W
            Runtime Dynamic = 1.87442 W

          LoadQ:
            Area = 0.0836782 mm^2
            Peak Dynamic = 0.126058 W
            Subthreshold Leakage = 0.00941961 W
            Subthreshold Leakage with power gating = 0.00536918 W
            Gate Leakage = 0.00059896 W
            Runtime Dynamic = 0.126058 W

          StoreQ:
            Area = 0.322079 mm^2
            Peak Dynamic = 0.310837 W
            Subthreshold Leakage = 0.0345621 W
            Subthreshold Leakage with power gating = 0.0197004 W
            Gate Leakage = 0.00329971 W
            Runtime Dynamic = 0.621674 W

      Memory Management Unit:
        Area = 0.434579 mm^2
        Peak Dynamic = 0.74921 W
        Subthreshold Leakage = 0.0769113 W
        Subthreshold Leakage with power gating = 0.0399462 W
        Gate Leakage = 0.00813591 W
        Runtime Dynamic = 0.3067 W

          Itlb:
            Area = 0.301552 mm^2
            Peak Dynamic = 0.399995 W
            Subthreshold Leakage = 0.0413758 W
            Subthreshold Leakage with power gating = 0.0235842 W
            Gate Leakage = 0.00393464 W
            Runtime Dynamic = 0.196137 W

          Dtlb:
            Area = 0.0879726 mm^2
            Peak Dynamic = 0.110317 W
            Subthreshold Leakage = 0.0155699 W
            Subthreshold Leakage with power gating = 0.00887485 W
            Gate Leakage = 0.00088729 W
            Runtime Dynamic = 0.110563 W

      Execution Unit:
        Area = 8.2042 mm^2
        Peak Dynamic = 5.65614 W
        Subthreshold Leakage = 1.83518 W
        Subthreshold Leakage with power gating = 0.709678 W
        Gate Leakage = 0.122718 W
        Runtime Dynamic = 3.05275 W

          Register Files:
            Area = 0.570804 mm^2
            Peak Dynamic = 0.105572 W
            Subthreshold Leakage = 0.0101387 W
            Subthreshold Leakage with power gating = 0.00423643 W
            Gate Leakage = 0.000622708 W
            Runtime Dynamic = 0.119785 W

              Integer RF:
                Area = 0.362673 mm^2
                Peak Dynamic = 0.103786 W
                Subthreshold Leakage = 0.00614175 W
                Subthreshold Leakage with power gating = 0.00246675 W
                Gate Leakage = 0.00038992 W
                Runtime Dynamic = 0.105517 W

              Floating Point RF:
                Area = 0.208131 mm^2
                Peak Dynamic = 0.0017862 W
                Subthreshold Leakage = 0.00399698 W
                Subthreshold Leakage with power gating = 0.00176968 W
                Gate Leakage = 0.000232788 W
                Runtime Dynamic = 0.0142675 W

          Instruction Scheduler:
            Area = 2.17927 mm^2
            Peak Dynamic = 4.84781 W
            Subthreshold Leakage = 0.114878 W
            Subthreshold Leakage with power gating = 0.0641291 W
            Gate Leakage = 0.00730101 W
            Runtime Dynamic = 1.46795 W

              Instruction Window:
                Area = 1.00996 mm^2
                Peak Dynamic = 2.07911 W
                Subthreshold Leakage = 0.0800117 W
                Subthreshold Leakage with power gating = 0.0455351 W
                Gate Leakage = 0.00529112 W
                Runtime Dynamic = 0.681536 W

              FP Instruction Window:
                Area = 0.328073 mm^2
                Peak Dynamic = 1.20978 W
                Subthreshold Leakage = 0.017004 W
                Subthreshold Leakage with power gating = 0.00962066 W
                Gate Leakage = 0.00115349 W
                Runtime Dynamic = 0.393578 W

              ROB:
                Area = 0.841232 mm^2
                Peak Dynamic = 1.55892 W
                Subthreshold Leakage = 0.0178624 W
                Subthreshold Leakage with power gating = 0.00897339 W
                Gate Leakage = 0.000856399 W
                Runtime Dynamic = 0.392832 W

          Integer ALUs (Count: 6 ):
            Area = 0.47087 mm^2
            Peak Dynamic = 0.387587 W
            Subthreshold Leakage = 0.40222 W
            Subthreshold Leakage with power gating = 0.150833 W
            Gate Leakage = 0.0265291 W
            Runtime Dynamic = 0.382587 W

          Floating Point Units (FPUs) (Count: 2 ):
            Area = 4.6585 mm^2
            Peak Dynamic = 0.00945475 W
            Subthreshold Leakage = 0.994829 W
            Subthreshold Leakage with power gating = 0.373061 W
            Gate Leakage = 0.0656156 W
            Runtime Dynamic = 0.308192 W

          Complex ALUs (Mul/Div) (Count: 1 ):
            Area = 0.235435 mm^2
            Peak Dynamic = 0.0016806 W
            Subthreshold Leakage = 0.20111 W
            Subthreshold Leakage with power gating = 0.0754163 W
            Gate Leakage = 0.0132646 W
            Runtime Dynamic = 0.204009 W

          Results Broadcast Bus:
            Area Overhead = 0.0442632 mm^2
            Peak Dynamic = 0.25125 W
            Subthreshold Leakage = 0.0920413 W
            Subthreshold Leakage with power gating = 0.0345155 W
            Gate Leakage = 0.00607074 W
            Runtime Dynamic = 0.570229 W

    L2
    Area = 22.2273 mm^2
    Peak Dynamic = 0.0295308 W
    Subthreshold Leakage = 4.28281 W
    Subthreshold Leakage with power gating = 1.92539 W
    Gate Leakage = 0.0518439 W
    Runtime Dynamic = 0.00266262 W

*****************************************************************************************
Core:
      Area = 52.0221 mm^2
      Peak Dynamic = 25.0844 W
      Subthreshold Leakage = 9.78705 W
      Subthreshold Leakage with power gating = 4.15395 W
      Gate Leakage = 0.421566 W
      Runtime Dynamic = 7.35519 W

      Instruction Fetch Unit:
        Area = 7.57986 mm^2
        Peak Dynamic = 9.64066 W
        Subthreshold Leakage = 1.0522 W
        Subthreshold Leakage with power gating = 0.455066 W
        Gate Leakage = 0.0712372 W
        Runtime Dynamic = 2.3596 W

          Instruction Cache:
            Area = 4.86613 mm^2
            Peak Dynamic = 7.17399 W
            Subthreshold Leakage = 0.486629 W
            Subthreshold Leakage with power gating = 0.22691 W
            Gate Leakage = 0.0421203 W
            Runtime Dynamic = 1.96643 W

          Branch Target Buffer:
            Area = 0.64954 mm^2
            Peak Dynamic = 0.177867 W
            Subthreshold Leakage = 0.0811682 W
            Subthreshold Leakage with power gating = 0.0435357 W
            Gate Leakage = 0.00272758 W
            Runtime Dynamic = 0.0339954 W

          Branch Predictor:
            Area = 0.138516 mm^2
            Peak Dynamic = 0.0597838 W
            Subthreshold Leakage = 0.0199703 W
            Subthreshold Leakage with power gating = 0.0103282 W
            Gate Leakage = 0.000757657 W
            Runtime Dynamic = 0.0110899 W

              Global Predictor:
                Area = 0.0435221 mm^2
                Peak Dynamic = 0.0168831 W
                Subthreshold Leakage = 0.00759719 W
                Subthreshold Leakage with power gating = 0.0039236 W
                Gate Leakage = 0.000278362 W
                Runtime Dynamic = 0.00345876 W

              Local Predictor:
              L1_Local Predictor:
                Area = 0.0257064 mm^2
                Peak Dynamic = 0.0142575 W
                Subthreshold Leakage = 0.00384344 W
                Subthreshold Leakage with power gating = 0.00198631 W
                Gate Leakage = 0.000154548 W
                Runtime Dynamic = 0.00298925 W

              L2_Local Predictor:
                Area = 0.0151917 mm^2
                Peak Dynamic = 0.00527447 W
                Subthreshold Leakage = 0.00181347 W
                Subthreshold Leakage with power gating = 0.000957045 W
                Gate Leakage = 8.00196e-05 W
                Runtime Dynamic = 0.00114444 W

              Chooser:
                Area = 0.0435221 mm^2
                Peak Dynamic = 0.0168831 W
                Subthreshold Leakage = 0.00759719 W
                Subthreshold Leakage with power gating = 0.0039236 W
                Gate Leakage = 0.000278362 W
                Runtime Dynamic = 0.00345876 W

              RAS:
                Area = 0.0105732 mm^2
                Peak Dynamic = 0.0117602 W
                Subthreshold Leakage = 0.000932505 W
                Subthreshold Leakage with power gating = 0.000494733 W
                Gate Leakage = 4.63858e-05 W
                Runtime Dynamic = 0.00118309 W

          Instruction Buffer:
            Area = 0.0226323 mm^2
            Peak Dynamic = 0.606827 W
            Subthreshold Leakage = 0.00151885 W
            Subthreshold Leakage with power gating = 0.000701682 W
            Gate Leakage = 6.83558e-05 W
            Runtime Dynamic = 0.079174 W

          Instruction Decoder:
            Area = 1.85799 mm^2
            Peak Dynamic = 1.37404 W
            Subthreshold Leakage = 0.442943 W
            Subthreshold Leakage with power gating = 0.166104 W
            Gate Leakage = 0.0222493 W
            Runtime Dynamic = 0.26891 W

      Renaming Unit:
        Area = 0.369768 mm^2
        Peak Dynamic = 4.56169 W
        Subthreshold Leakage = 0.070483 W
        Subthreshold Leakage with power gating = 0.0362779 W
        Gate Leakage = 0.00863632 W
        Runtime Dynamic = 0.180402 W

          Int Front End RAT:
            Area = 0.114751 mm^2
            Peak Dynamic = 0.86945 W
            Subthreshold Leakage = 0.00611897 W
            Subthreshold Leakage with power gating = 0.00348781 W
            Gate Leakage = 0.00038343 W
            Runtime Dynamic = 0.158387 W

          FP Front End RAT:
            Area = 0.168486 mm^2
            Peak Dynamic = 3.33511 W
            Subthreshold Leakage = 0.0437281 W
            Subthreshold Leakage with power gating = 0.024925 W
            Gate Leakage = 0.00489731 W
            Runtime Dynamic = 0.00623154 W

          Free List:
            Area = 0.0414755 mm^2
            Peak Dynamic = 0.0401324 W
            Subthreshold Leakage = 0.000670426 W
            Subthreshold Leakage with power gating = 0.000377987 W
            Gate Leakage = 4.15911e-05 W
            Runtime Dynamic = 0.0157835 W

      Load Store Unit:
        Area = 8.80969 mm^2
        Peak Dynamic = 4.75615 W
        Subthreshold Leakage = 0.591622 W
        Subthreshold Leakage with power gating = 0.283406 W
        Gate Leakage = 0.0351387 W
        Runtime Dynamic = 2.05361 W

          Data Cache:
            Area = 6.84535 mm^2
            Peak Dynamic = 4.28813 W
            Subthreshold Leakage = 0.527675 W
            Subthreshold Leakage with power gating = 0.25085 W
            Gate Leakage = 0.0279261 W
            Runtime Dynamic = 1.46811 W

          LoadQ:
            Area = 0.0836782 mm^2
            Peak Dynamic = 0.0987075 W
            Subthreshold Leakage = 0.00941961 W
            Subthreshold Leakage with power gating = 0.00536918 W
            Gate Leakage = 0.00059896 W
            Runtime Dynamic = 0.0987075 W

          StoreQ:
            Area = 0.322079 mm^2
            Peak Dynamic = 0.243396 W
            Subthreshold Leakage = 0.0345621 W
            Subthreshold Leakage with power gating = 0.0197004 W
            Gate Leakage = 0.00329971 W
            Runtime Dynamic = 0.486792 W

      Memory Management Unit:
        Area = 0.434579 mm^2
        Peak Dynamic = 0.620966 W
        Subthreshold Leakage = 0.0769113 W
        Subthreshold Leakage with power gating = 0.0399462 W
        Gate Leakage = 0.00813591 W
        Runtime Dynamic = 0.238689 W

          Itlb:
            Area = 0.301552 mm^2
            Peak Dynamic = 0.313129 W
            Subthreshold Leakage = 0.0413758 W
            Subthreshold Leakage with power gating = 0.0235842 W
            Gate Leakage = 0.00393464 W
            Runtime Dynamic = 0.152114 W

          Dtlb:
            Area = 0.0879726 mm^2
            Peak Dynamic = 0.086382 W
            Subthreshold Leakage = 0.0155699 W
            Subthreshold Leakage with power gating = 0.00887485 W
            Gate Leakage = 0.00088729 W
            Runtime Dynamic = 0.0865748 W

      Execution Unit:
        Area = 8.2042 mm^2
        Peak Dynamic = 5.48177 W
        Subthreshold Leakage = 1.83518 W
        Subthreshold Leakage with power gating = 0.709678 W
        Gate Leakage = 0.122718 W
        Runtime Dynamic = 2.52036 W

          Register Files:
            Area = 0.570804 mm^2
            Peak Dynamic = 0.0829288 W
            Subthreshold Leakage = 0.0101387 W
            Subthreshold Leakage with power gating = 0.00423643 W
            Gate Leakage = 0.000622708 W
            Runtime Dynamic = 0.0934954 W

              Integer RF:
                Area = 0.362673 mm^2
                Peak Dynamic = 0.0811426 W
                Subthreshold Leakage = 0.00614175 W
                Subthreshold Leakage with power gating = 0.00246675 W
                Gate Leakage = 0.00038992 W
                Runtime Dynamic = 0.0823591 W

              Floating Point RF:
                Area = 0.208131 mm^2
                Peak Dynamic = 0.0017862 W
                Subthreshold Leakage = 0.00399698 W
                Subthreshold Leakage with power gating = 0.00176968 W
                Gate Leakage = 0.000232788 W
                Runtime Dynamic = 0.0111362 W

          Instruction Scheduler:
            Area = 2.17927 mm^2
            Peak Dynamic = 4.84781 W
            Subthreshold Leakage = 0.114878 W
            Subthreshold Leakage with power gating = 0.0641291 W
            Gate Leakage = 0.00730101 W
            Runtime Dynamic = 1.1462 W

              Instruction Window:
                Area = 1.00996 mm^2
                Peak Dynamic = 2.07911 W
                Subthreshold Leakage = 0.0800117 W
                Subthreshold Leakage with power gating = 0.0455351 W
                Gate Leakage = 0.00529112 W
                Runtime Dynamic = 0.531958 W

              FP Instruction Window:
                Area = 0.328073 mm^2
                Peak Dynamic = 1.20978 W
                Subthreshold Leakage = 0.017004 W
                Subthreshold Leakage with power gating = 0.00962066 W
                Gate Leakage = 0.00115349 W
                Runtime Dynamic = 0.307199 W

              ROB:
                Area = 0.841232 mm^2
                Peak Dynamic = 1.55892 W
                Subthreshold Leakage = 0.0178624 W
                Subthreshold Leakage with power gating = 0.00897339 W
                Gate Leakage = 0.000856399 W
                Runtime Dynamic = 0.307045 W

          Integer ALUs (Count: 6 ):
            Area = 0.47087 mm^2
            Peak Dynamic = 0.302204 W
            Subthreshold Leakage = 0.40222 W
            Subthreshold Leakage with power gating = 0.150833 W
            Gate Leakage = 0.0265291 W
            Runtime Dynamic = 0.321339 W

          Floating Point Units (FPUs) (Count: 2 ):
            Area = 4.6585 mm^2
            Peak Dynamic = 0.00945475 W
            Subthreshold Leakage = 0.994829 W
            Subthreshold Leakage with power gating = 0.373061 W
            Gate Leakage = 0.0656156 W
            Runtime Dynamic = 0.308192 W

          Complex ALUs (Mul/Div) (Count: 1 ):
            Area = 0.235435 mm^2
            Peak Dynamic = 0.0016806 W
            Subthreshold Leakage = 0.20111 W
            Subthreshold Leakage with power gating = 0.0754163 W
            Gate Leakage = 0.0132646 W
            Runtime Dynamic = 0.204009 W

          Results Broadcast Bus:
            Area Overhead = 0.0442632 mm^2
            Peak Dynamic = 0.196534 W
            Subthreshold Leakage = 0.0920413 W
            Subthreshold Leakage with power gating = 0.0345155 W
            Gate Leakage = 0.00607074 W
            Runtime Dynamic = 0.447119 W

    L2
    Area = 22.2273 mm^2
    Peak Dynamic = 0.0231949 W
    Subthreshold Leakage = 4.28281 W
    Subthreshold Leakage with power gating = 1.92539 W
    Gate Leakage = 0.0518439 W
    Runtime Dynamic = 0.00253606 W

*****************************************************************************************
Core:
      Area = 52.0221 mm^2
      Peak Dynamic = 28.9454 W
      Subthreshold Leakage = 9.78705 W
      Subthreshold Leakage with power gating = 4.15395 W
      Gate Leakage = 0.421566 W
      Runtime Dynamic = 10.0735 W

      Instruction Fetch Unit:
        Area = 7.57986 mm^2
        Peak Dynamic = 11.6996 W
        Subthreshold Leakage = 1.0522 W
        Subthreshold Leakage with power gating = 0.455066 W
        Gate Leakage = 0.0712372 W
        Runtime Dynamic = 3.33342 W

          Instruction Cache:
            Area = 4.86613 mm^2
            Peak Dynamic = 9.16413 W
            Subthreshold Leakage = 0.486629 W
            Subthreshold Leakage with power gating = 0.22691 W
            Gate Leakage = 0.0421203 W
            Runtime Dynamic = 2.78149 W

          Branch Target Buffer:
            Area = 0.64954 mm^2
            Peak Dynamic = 0.177867 W
            Subthreshold Leakage = 0.0811682 W
            Subthreshold Leakage with power gating = 0.0435357 W
            Gate Leakage = 0.00272758 W
            Runtime Dynamic = 0.0480138 W

          Branch Predictor:
            Area = 0.138516 mm^2
            Peak Dynamic = 0.0597838 W
            Subthreshold Leakage = 0.0199703 W
            Subthreshold Leakage with power gating = 0.0103282 W
            Gate Leakage = 0.000757657 W
            Runtime Dynamic = 0.015651 W

              Global Predictor:
                Area = 0.0435221 mm^2
                Peak Dynamic = 0.0168831 W
                Subthreshold Leakage = 0.00759719 W
                Subthreshold Leakage with power gating = 0.0039236 W
                Gate Leakage = 0.000278362 W
                Runtime Dynamic = 0.00488485 W

              Local Predictor:
              L1_Local Predictor:
                Area = 0.0257064 mm^2
                Peak Dynamic = 0.0142575 W
                Subthreshold Leakage = 0.00384344 W
                Subthreshold Leakage with power gating = 0.00198631 W
                Gate Leakage = 0.000154548 W
                Runtime Dynamic = 0.00422172 W

              L2_Local Predictor:
                Area = 0.0151917 mm^2
                Peak Dynamic = 0.00527447 W
                Subthreshold Leakage = 0.00181347 W
                Subthreshold Leakage with power gating = 0.000957045 W
                Gate Leakage = 8.00196e-05 W
                Runtime Dynamic = 0.00161626 W

              Chooser:
                Area = 0.0435221 mm^2
                Peak Dynamic = 0.0168831 W
                Subthreshold Leakage = 0.00759719 W
                Subthreshold Leakage with power gating = 0.0039236 W
                Gate Leakage = 0.000278362 W
                Runtime Dynamic = 0.00488485 W

              RAS:
                Area = 0.0105732 mm^2
                Peak Dynamic = 0.0117602 W
                Subthreshold Leakage = 0.000932505 W
                Subthreshold Leakage with power gating = 0.000494733 W
                Gate Leakage = 4.63858e-05 W
                Runtime Dynamic = 0.00165955 W

          Instruction Buffer:
            Area = 0.0226323 mm^2
            Peak Dynamic = 0.606827 W
            Subthreshold Leakage = 0.00151885 W
            Subthreshold Leakage with power gating = 0.000701682 W
            Gate Leakage = 6.83558e-05 W
            Runtime Dynamic = 0.111059 W

          Instruction Decoder:
            Area = 1.85799 mm^2
            Peak Dynamic = 1.37404 W
            Subthreshold Leakage = 0.442943 W
            Subthreshold Leakage with power gating = 0.166104 W
            Gate Leakage = 0.0222493 W
            Runtime Dynamic = 0.377205 W

      Renaming Unit:
        Area = 0.369768 mm^2
        Peak Dynamic = 4.56169 W
        Subthreshold Leakage = 0.070483 W
        Subthreshold Leakage with power gating = 0.0362779 W
        Gate Leakage = 0.00863632 W
        Runtime Dynamic = 0.250492 W

          Int Front End RAT:
            Area = 0.114751 mm^2
            Peak Dynamic = 0.86945 W
            Subthreshold Leakage = 0.00611897 W
            Subthreshold Leakage with power gating = 0.00348781 W
            Gate Leakage = 0.00038343 W
            Runtime Dynamic = 0.222151 W

          FP Front End RAT:
            Area = 0.168486 mm^2
            Peak Dynamic = 3.33511 W
            Subthreshold Leakage = 0.0437281 W
            Subthreshold Leakage with power gating = 0.024925 W
            Gate Leakage = 0.00489731 W
            Runtime Dynamic = 0.00623154 W

          Free List:
            Area = 0.0414755 mm^2
            Peak Dynamic = 0.0401324 W
            Subthreshold Leakage = 0.000670426 W
            Subthreshold Leakage with power gating = 0.000377987 W
            Gate Leakage = 4.15911e-05 W
            Runtime Dynamic = 0.0221095 W

      Load Store Unit:
        Area = 8.80969 mm^2
        Peak Dynamic = 6.15267 W
        Subthreshold Leakage = 0.591622 W
        Subthreshold Leakage with power gating = 0.283406 W
        Gate Leakage = 0.0351387 W
        Runtime Dynamic = 2.8679 W

          Data Cache:
            Area = 6.84535 mm^2
            Peak Dynamic = 5.49892 W
            Subthreshold Leakage = 0.527675 W
            Subthreshold Leakage with power gating = 0.25085 W
            Gate Leakage = 0.0279261 W
            Runtime Dynamic = 2.05005 W

          LoadQ:
            Area = 0.0836782 mm^2
            Peak Dynamic = 0.137879 W
            Subthreshold Leakage = 0.00941961 W
            Subthreshold Leakage with power gating = 0.00536918 W
            Gate Leakage = 0.00059896 W
            Runtime Dynamic = 0.137879 W

          StoreQ:
            Area = 0.322079 mm^2
            Peak Dynamic = 0.339987 W
            Subthreshold Leakage = 0.0345621 W
            Subthreshold Leakage with power gating = 0.0197004 W
            Gate Leakage = 0.00329971 W
            Runtime Dynamic = 0.679974 W

      Memory Management Unit:
        Area = 0.434579 mm^2
        Peak Dynamic = 0.767096 W
        Subthreshold Leakage = 0.0769113 W
        Subthreshold Leakage with power gating = 0.0399462 W
        Gate Leakage = 0.00813591 W
        Runtime Dynamic = 0.336098 W

          Itlb:
            Area = 0.301552 mm^2
            Peak Dynamic = 0.399995 W
            Subthreshold Leakage = 0.0413758 W
            Subthreshold Leakage with power gating = 0.0235842 W
            Gate Leakage = 0.00393464 W
            Runtime Dynamic = 0.215163 W

          Dtlb:
            Area = 0.0879726 mm^2
            Peak Dynamic = 0.120663 W
            Subthreshold Leakage = 0.0155699 W
            Subthreshold Leakage with power gating = 0.00887485 W
            Gate Leakage = 0.00088729 W
            Runtime Dynamic = 0.120935 W

      Execution Unit:
        Area = 8.2042 mm^2
        Peak Dynamic = 5.73151 W
        Subthreshold Leakage = 1.83518 W
        Subthreshold Leakage with power gating = 0.709678 W
        Gate Leakage = 0.122718 W
        Runtime Dynamic = 3.28286 W

          Register Files:
            Area = 0.570804 mm^2
            Peak Dynamic = 0.11536 W
            Subthreshold Leakage = 0.0101387 W
            Subthreshold Leakage with power gating = 0.00423643 W
            Gate Leakage = 0.000622708 W
            Runtime Dynamic = 0.131148 W

              Integer RF:
                Area = 0.362673 mm^2
                Peak Dynamic = 0.113573 W
                Subthreshold Leakage = 0.00614175 W
                Subthreshold Leakage with power gating = 0.00246675 W
                Gate Leakage = 0.00038992 W
                Runtime Dynamic = 0.115527 W

              Floating Point RF:
                Area = 0.208131 mm^2
                Peak Dynamic = 0.0017862 W
                Subthreshold Leakage = 0.00399698 W
                Subthreshold Leakage with power gating = 0.00176968 W
                Gate Leakage = 0.000232788 W
                Runtime Dynamic = 0.015621 W

          Instruction Scheduler:
            Area = 2.17927 mm^2
            Peak Dynamic = 4.84781 W
            Subthreshold Leakage = 0.114878 W
            Subthreshold Leakage with power gating = 0.0641291 W
            Gate Leakage = 0.00730101 W
            Runtime Dynamic = 1.60701 W

              Instruction Window:
                Area = 1.00996 mm^2
                Peak Dynamic = 2.07911 W
                Subthreshold Leakage = 0.0800117 W
                Subthreshold Leakage with power gating = 0.0455351 W
                Gate Leakage = 0.00529112 W
                Runtime Dynamic = 0.746187 W

              FP Instruction Window:
                Area = 0.328073 mm^2
                Peak Dynamic = 1.20978 W
                Subthreshold Leakage = 0.017004 W
                Subthreshold Leakage with power gating = 0.00962066 W
                Gate Leakage = 0.00115349 W
                Runtime Dynamic = 0.430914 W

              ROB:
                Area = 0.841232 mm^2
                Peak Dynamic = 1.55892 W
                Subthreshold Leakage = 0.0178624 W
                Subthreshold Leakage with power gating = 0.00897339 W
                Gate Leakage = 0.000856399 W
                Runtime Dynamic = 0.429912 W

          Integer ALUs (Count: 6 ):
            Area = 0.47087 mm^2
            Peak Dynamic = 0.424492 W
            Subthreshold Leakage = 0.40222 W
            Subthreshold Leakage with power gating = 0.150833 W
            Gate Leakage = 0.0265291 W
            Runtime Dynamic = 0.409061 W

          Floating Point Units (FPUs) (Count: 2 ):
            Area = 4.6585 mm^2
            Peak Dynamic = 0.00945475 W
            Subthreshold Leakage = 0.994829 W
            Subthreshold Leakage with power gating = 0.373061 W
            Gate Leakage = 0.0656156 W
            Runtime Dynamic = 0.308192 W

          Complex ALUs (Mul/Div) (Count: 1 ):
            Area = 0.235435 mm^2
            Peak Dynamic = 0.0016806 W
            Subthreshold Leakage = 0.20111 W
            Subthreshold Leakage with power gating = 0.0754163 W
            Gate Leakage = 0.0132646 W
            Runtime Dynamic = 0.204009 W

          Results Broadcast Bus:
            Area Overhead = 0.0442632 mm^2
            Peak Dynamic = 0.2749 W
            Subthreshold Leakage = 0.0920413 W
            Subthreshold Leakage with power gating = 0.0345155 W
            Gate Leakage = 0.00607074 W
            Runtime Dynamic = 0.623442 W

    L2
    Area = 22.2273 mm^2
    Peak Dynamic = 0.0327355 W
    Subthreshold Leakage = 4.28281 W
    Subthreshold Leakage with power gating = 1.92539 W
    Gate Leakage = 0.0518439 W
    Runtime Dynamic = 0.00274067 W

*****************************************************************************************
Core:
      Area = 52.0221 mm^2
      Peak Dynamic = 29.0388 W
      Subthreshold Leakage = 9.78705 W
      Subthreshold Leakage with power gating = 4.15395 W
      Gate Leakage = 0.421566 W
      Runtime Dynamic = 10.2216 W

      Instruction Fetch Unit:
        Area = 7.57986 mm^2
        Peak Dynamic = 11.6996 W
        Subthreshold Leakage = 1.0522 W
        Subthreshold Leakage with power gating = 0.455066 W
        Gate Leakage = 0.0712372 W
        Runtime Dynamic = 3.38663 W

          Instruction Cache:
            Area = 4.86613 mm^2
            Peak Dynamic = 9.16413 W
            Subthreshold Leakage = 0.486629 W
            Subthreshold Leakage with power gating = 0.22691 W
            Gate Leakage = 0.0421203 W
            Runtime Dynamic = 2.82603 W

          Branch Target Buffer:
            Area = 0.64954 mm^2
            Peak Dynamic = 0.177867 W
            Subthreshold Leakage = 0.0811682 W
            Subthreshold Leakage with power gating = 0.0435357 W
            Gate Leakage = 0.00272758 W
            Runtime Dynamic = 0.0487795 W

          Branch Predictor:
            Area = 0.138516 mm^2
            Peak Dynamic = 0.0597838 W
            Subthreshold Leakage = 0.0199703 W
            Subthreshold Leakage with power gating = 0.0103282 W
            Gate Leakage = 0.000757657 W
            Runtime Dynamic = 0.0159 W

              Global Predictor:
                Area = 0.0435221 mm^2
                Peak Dynamic = 0.0168831 W
                Subthreshold Leakage = 0.00759719 W
                Subthreshold Leakage with power gating = 0.0039236 W
                Gate Leakage = 0.000278362 W
                Runtime Dynamic = 0.00496271 W

              Local Predictor:
              L1_Local Predictor:
                Area = 0.0257064 mm^2
                Peak Dynamic = 0.0142575 W
                Subthreshold Leakage = 0.00384344 W
                Subthreshold Leakage with power gating = 0.00198631 W
                Gate Leakage = 0.000154548 W
                Runtime Dynamic = 0.00428899 W

              L2_Local Predictor:
                Area = 0.0151917 mm^2
                Peak Dynamic = 0.00527447 W
                Subthreshold Leakage = 0.00181347 W
                Subthreshold Leakage with power gating = 0.000957045 W
                Gate Leakage = 8.00196e-05 W
                Runtime Dynamic = 0.00164201 W

              Chooser:
                Area = 0.0435221 mm^2
                Peak Dynamic = 0.0168831 W
                Subthreshold Leakage = 0.00759719 W
                Subthreshold Leakage with power gating = 0.0039236 W
                Gate Leakage = 0.000278362 W
                Runtime Dynamic = 0.00496271 W

              RAS:
                Area = 0.0105732 mm^2
                Peak Dynamic = 0.0117602 W
                Subthreshold Leakage = 0.000932505 W
                Subthreshold Leakage with power gating = 0.000494733 W
                Gate Leakage = 4.63858e-05 W
                Runtime Dynamic = 0.00168557 W

          Instruction Buffer:
            Area = 0.0226323 mm^2
            Peak Dynamic = 0.606827 W
            Subthreshold Leakage = 0.00151885 W
            Subthreshold Leakage with power gating = 0.000701682 W
            Gate Leakage = 6.83558e-05 W
            Runtime Dynamic = 0.1128 W

          Instruction Decoder:
            Area = 1.85799 mm^2
            Peak Dynamic = 1.37404 W
            Subthreshold Leakage = 0.442943 W
            Subthreshold Leakage with power gating = 0.166104 W
            Gate Leakage = 0.0222493 W
            Runtime Dynamic = 0.38312 W

      Renaming Unit:
        Area = 0.369768 mm^2
        Peak Dynamic = 4.56169 W
        Subthreshold Leakage = 0.070483 W
        Subthreshold Leakage with power gating = 0.0362779 W
        Gate Leakage = 0.00863632 W
        Runtime Dynamic = 0.25432 W

          Int Front End RAT:
            Area = 0.114751 mm^2
            Peak Dynamic = 0.86945 W
            Subthreshold Leakage = 0.00611897 W
            Subthreshold Leakage with power gating = 0.00348781 W
            Gate Leakage = 0.00038343 W
            Runtime Dynamic = 0.225634 W

          FP Front End RAT:
            Area = 0.168486 mm^2
            Peak Dynamic = 3.33511 W
            Subthreshold Leakage = 0.0437281 W
            Subthreshold Leakage with power gating = 0.024925 W
            Gate Leakage = 0.00489731 W
            Runtime Dynamic = 0.00623154 W

          Free List:
            Area = 0.0414755 mm^2
            Peak Dynamic = 0.0401324 W
            Subthreshold Leakage = 0.000670426 W
            Subthreshold Leakage with power gating = 0.000377987 W
            Gate Leakage = 4.15911e-05 W
            Runtime Dynamic = 0.022455 W

      Load Store Unit:
        Area = 8.80969 mm^2
        Peak Dynamic = 6.22894 W
        Subthreshold Leakage = 0.591622 W
        Subthreshold Leakage with power gating = 0.283406 W
        Gate Leakage = 0.0351387 W
        Runtime Dynamic = 2.9122 W

          Data Cache:
            Area = 6.84535 mm^2
            Peak Dynamic = 5.56505 W
            Subthreshold Leakage = 0.527675 W
            Subthreshold Leakage with power gating = 0.25085 W
            Gate Leakage = 0.0279261 W
            Runtime Dynamic = 2.08165 W

          LoadQ:
            Area = 0.0836782 mm^2
            Peak Dynamic = 0.140019 W
            Subthreshold Leakage = 0.00941961 W
            Subthreshold Leakage with power gating = 0.00536918 W
            Gate Leakage = 0.00059896 W
            Runtime Dynamic = 0.140019 W

          StoreQ:
            Area = 0.322079 mm^2
            Peak Dynamic = 0.345262 W
            Subthreshold Leakage = 0.0345621 W
            Subthreshold Leakage with power gating = 0.0197004 W
            Gate Leakage = 0.00329971 W
            Runtime Dynamic = 0.690525 W

      Memory Management Unit:
        Area = 0.434579 mm^2
        Peak Dynamic = 0.770333 W
        Subthreshold Leakage = 0.0769113 W
        Subthreshold Leakage with power gating = 0.0399462 W
        Gate Leakage = 0.00813591 W
        Runtime Dynamic = 0.341418 W

          Itlb:
            Area = 0.301552 mm^2
            Peak Dynamic = 0.399995 W
            Subthreshold Leakage = 0.0413758 W
            Subthreshold Leakage with power gating = 0.0235842 W
            Gate Leakage = 0.00393464 W
            Runtime Dynamic = 0.218608 W

          Dtlb:
            Area = 0.0879726 mm^2
            Peak Dynamic = 0.122535 W
            Subthreshold Leakage = 0.0155699 W
            Subthreshold Leakage with power gating = 0.00887485 W
            Gate Leakage = 0.00088729 W
            Runtime Dynamic = 0.122809 W

      Execution Unit:
        Area = 8.2042 mm^2
        Peak Dynamic = 5.74515 W
        Subthreshold Leakage = 1.83518 W
        Subthreshold Leakage with power gating = 0.709678 W
        Gate Leakage = 0.122718 W
        Runtime Dynamic = 3.32451 W

          Register Files:
            Area = 0.570804 mm^2
            Peak Dynamic = 0.11713 W
            Subthreshold Leakage = 0.0101387 W
            Subthreshold Leakage with power gating = 0.00423643 W
            Gate Leakage = 0.000622708 W
            Runtime Dynamic = 0.133204 W

              Integer RF:
                Area = 0.362673 mm^2
                Peak Dynamic = 0.115344 W
                Subthreshold Leakage = 0.00614175 W
                Subthreshold Leakage with power gating = 0.00246675 W
                Gate Leakage = 0.00038992 W
                Runtime Dynamic = 0.117338 W

              Floating Point RF:
                Area = 0.208131 mm^2
                Peak Dynamic = 0.0017862 W
                Subthreshold Leakage = 0.00399698 W
                Subthreshold Leakage with power gating = 0.00176968 W
                Gate Leakage = 0.000232788 W
                Runtime Dynamic = 0.0158659 W

          Instruction Scheduler:
            Area = 2.17927 mm^2
            Peak Dynamic = 4.84781 W
            Subthreshold Leakage = 0.114878 W
            Subthreshold Leakage with power gating = 0.0641291 W
            Gate Leakage = 0.00730101 W
            Runtime Dynamic = 1.63218 W

              Instruction Window:
                Area = 1.00996 mm^2
                Peak Dynamic = 2.07911 W
                Subthreshold Leakage = 0.0800117 W
                Subthreshold Leakage with power gating = 0.0455351 W
                Gate Leakage = 0.00529112 W
                Runtime Dynamic = 0.757887 W

              FP Instruction Window:
                Area = 0.328073 mm^2
                Peak Dynamic = 1.20978 W
                Subthreshold Leakage = 0.017004 W
                Subthreshold Leakage with power gating = 0.00962066 W
                Gate Leakage = 0.00115349 W
                Runtime Dynamic = 0.437671 W

              ROB:
                Area = 0.841232 mm^2
                Peak Dynamic = 1.55892 W
                Subthreshold Leakage = 0.0178624 W
                Subthreshold Leakage with power gating = 0.00897339 W
                Gate Leakage = 0.000856399 W
                Runtime Dynamic = 0.436622 W

          Integer ALUs (Count: 6 ):
            Area = 0.47087 mm^2
            Peak Dynamic = 0.431169 W
            Subthreshold Leakage = 0.40222 W
            Subthreshold Leakage with power gating = 0.150833 W
            Gate Leakage = 0.0265291 W
            Runtime Dynamic = 0.413851 W

          Floating Point Units (FPUs) (Count: 2 ):
            Area = 4.6585 mm^2
            Peak Dynamic = 0.00945475 W
            Subthreshold Leakage = 0.994829 W
            Subthreshold Leakage with power gating = 0.373061 W
            Gate Leakage = 0.0656156 W
            Runtime Dynamic = 0.308192 W

          Complex ALUs (Mul/Div) (Count: 1 ):
            Area = 0.235435 mm^2
            Peak Dynamic = 0.0016806 W
            Subthreshold Leakage = 0.20111 W
            Subthreshold Leakage with power gating = 0.0754163 W
            Gate Leakage = 0.0132646 W
            Runtime Dynamic = 0.204009 W

          Results Broadcast Bus:
            Area Overhead = 0.0442632 mm^2
            Peak Dynamic = 0.279179 W
            Subthreshold Leakage = 0.0920413 W
            Subthreshold Leakage with power gating = 0.0345155 W
            Gate Leakage = 0.00607074 W
            Runtime Dynamic = 0.633071 W

    L2
    Area = 22.2273 mm^2
    Peak Dynamic = 0.0330293 W
    Subthreshold Leakage = 4.28281 W
    Subthreshold Leakage with power gating = 1.92539 W
    Gate Leakage = 0.0518439 W
    Runtime Dynamic = 0.00254284 W

*****************************************************************************************
Core:
      Area = 52.0221 mm^2
      Peak Dynamic = 28.9987 W
      Subthreshold Leakage = 9.78705 W
      Subthreshold Leakage with power gating = 4.15395 W
      Gate Leakage = 0.421566 W
      Runtime Dynamic = 10.158 W

      Instruction Fetch Unit:
        Area = 7.57986 mm^2
        Peak Dynamic = 11.6996 W
        Subthreshold Leakage = 1.0522 W
        Subthreshold Leakage with power gating = 0.455066 W
        Gate Leakage = 0.0712372 W
        Runtime Dynamic = 3.36373 W

          Instruction Cache:
            Area = 4.86613 mm^2
            Peak Dynamic = 9.16413 W
            Subthreshold Leakage = 0.486629 W
            Subthreshold Leakage with power gating = 0.22691 W
            Gate Leakage = 0.0421203 W
            Runtime Dynamic = 2.80686 W

          Branch Target Buffer:
            Area = 0.64954 mm^2
            Peak Dynamic = 0.177867 W
            Subthreshold Leakage = 0.0811682 W
            Subthreshold Leakage with power gating = 0.0435357 W
            Gate Leakage = 0.00272758 W
            Runtime Dynamic = 0.0484501 W

          Branch Predictor:
            Area = 0.138516 mm^2
            Peak Dynamic = 0.0597838 W
            Subthreshold Leakage = 0.0199703 W
            Subthreshold Leakage with power gating = 0.0103282 W
            Gate Leakage = 0.000757657 W
            Runtime Dynamic = 0.0157925 W

              Global Predictor:
                Area = 0.0435221 mm^2
                Peak Dynamic = 0.0168831 W
                Subthreshold Leakage = 0.00759719 W
                Subthreshold Leakage with power gating = 0.0039236 W
                Gate Leakage = 0.000278362 W
                Runtime Dynamic = 0.00492911 W

              Local Predictor:
              L1_Local Predictor:
                Area = 0.0257064 mm^2
                Peak Dynamic = 0.0142575 W
                Subthreshold Leakage = 0.00384344 W
                Subthreshold Leakage with power gating = 0.00198631 W
                Gate Leakage = 0.000154548 W
                Runtime Dynamic = 0.00425993 W

              L2_Local Predictor:
                Area = 0.0151917 mm^2
                Peak Dynamic = 0.00527447 W
                Subthreshold Leakage = 0.00181347 W
                Subthreshold Leakage with power gating = 0.000957045 W
                Gate Leakage = 8.00196e-05 W
                Runtime Dynamic = 0.00163087 W

              Chooser:
                Area = 0.0435221 mm^2
                Peak Dynamic = 0.0168831 W
                Subthreshold Leakage = 0.00759719 W
                Subthreshold Leakage with power gating = 0.0039236 W
                Gate Leakage = 0.000278362 W
                Runtime Dynamic = 0.00492911 W

              RAS:
                Area = 0.0105732 mm^2
                Peak Dynamic = 0.0117602 W
                Subthreshold Leakage = 0.000932505 W
                Subthreshold Leakage with power gating = 0.000494733 W
                Gate Leakage = 4.63858e-05 W
                Runtime Dynamic = 0.00167438 W

          Instruction Buffer:
            Area = 0.0226323 mm^2
            Peak Dynamic = 0.606827 W
            Subthreshold Leakage = 0.00151885 W
            Subthreshold Leakage with power gating = 0.000701682 W
            Gate Leakage = 6.83558e-05 W
            Runtime Dynamic = 0.112051 W

          Instruction Decoder:
            Area = 1.85799 mm^2
            Peak Dynamic = 1.37404 W
            Subthreshold Leakage = 0.442943 W
            Subthreshold Leakage with power gating = 0.166104 W
            Gate Leakage = 0.0222493 W
            Runtime Dynamic = 0.380575 W

      Renaming Unit:
        Area = 0.369768 mm^2
        Peak Dynamic = 4.56169 W
        Subthreshold Leakage = 0.070483 W
        Subthreshold Leakage with power gating = 0.0362779 W
        Gate Leakage = 0.00863632 W
        Runtime Dynamic = 0.252673 W

          Int Front End RAT:
            Area = 0.114751 mm^2
            Peak Dynamic = 0.86945 W
            Subthreshold Leakage = 0.00611897 W
            Subthreshold Leakage with power gating = 0.00348781 W
            Gate Leakage = 0.00038343 W
            Runtime Dynamic = 0.224135 W

          FP Front End RAT:
            Area = 0.168486 mm^2
            Peak Dynamic = 3.33511 W
            Subthreshold Leakage = 0.0437281 W
            Subthreshold Leakage with power gating = 0.024925 W
            Gate Leakage = 0.00489731 W
            Runtime Dynamic = 0.00623154 W

          Free List:
            Area = 0.0414755 mm^2
            Peak Dynamic = 0.0401324 W
            Subthreshold Leakage = 0.000670426 W
            Subthreshold Leakage with power gating = 0.000377987 W
            Gate Leakage = 4.15911e-05 W
            Runtime Dynamic = 0.0223064 W

      Load Store Unit:
        Area = 8.80969 mm^2
        Peak Dynamic = 6.19612 W
        Subthreshold Leakage = 0.591622 W
        Subthreshold Leakage with power gating = 0.283406 W
        Gate Leakage = 0.0351387 W
        Runtime Dynamic = 2.8932 W

          Data Cache:
            Area = 6.84535 mm^2
            Peak Dynamic = 5.5366 W
            Subthreshold Leakage = 0.527675 W
            Subthreshold Leakage with power gating = 0.25085 W
            Gate Leakage = 0.0279261 W
            Runtime Dynamic = 2.06811 W

          LoadQ:
            Area = 0.0836782 mm^2
            Peak Dynamic = 0.139098 W
            Subthreshold Leakage = 0.00941961 W
            Subthreshold Leakage with power gating = 0.00536918 W
            Gate Leakage = 0.00059896 W
            Runtime Dynamic = 0.139098 W

          StoreQ:
            Area = 0.322079 mm^2
            Peak Dynamic = 0.342993 W
            Subthreshold Leakage = 0.0345621 W
            Subthreshold Leakage with power gating = 0.0197004 W
            Gate Leakage = 0.00329971 W
            Runtime Dynamic = 0.685986 W

      Memory Management Unit:
        Area = 0.434579 mm^2
        Peak Dynamic = 0.76894 W
        Subthreshold Leakage = 0.0769113 W
        Subthreshold Leakage with power gating = 0.0399462 W
        Gate Leakage = 0.00813591 W
        Runtime Dynamic = 0.339129 W

          Itlb:
            Area = 0.301552 mm^2
            Peak Dynamic = 0.399995 W
            Subthreshold Leakage = 0.0413758 W
            Subthreshold Leakage with power gating = 0.0235842 W
            Gate Leakage = 0.00393464 W
            Runtime Dynamic = 0.217125 W

          Dtlb:
            Area = 0.0879726 mm^2
            Peak Dynamic = 0.121729 W
            Subthreshold Leakage = 0.0155699 W
            Subthreshold Leakage with power gating = 0.00887485 W
            Gate Leakage = 0.00088729 W
            Runtime Dynamic = 0.122004 W

      Execution Unit:
        Area = 8.2042 mm^2
        Peak Dynamic = 5.73928 W
        Subthreshold Leakage = 1.83518 W
        Subthreshold Leakage with power gating = 0.709678 W
        Gate Leakage = 0.122718 W
        Runtime Dynamic = 3.30659 W

          Register Files:
            Area = 0.570804 mm^2
            Peak Dynamic = 0.116369 W
            Subthreshold Leakage = 0.0101387 W
            Subthreshold Leakage with power gating = 0.00423643 W
            Gate Leakage = 0.000622708 W
            Runtime Dynamic = 0.132319 W

              Integer RF:
                Area = 0.362673 mm^2
                Peak Dynamic = 0.114582 W
                Subthreshold Leakage = 0.00614175 W
                Subthreshold Leakage with power gating = 0.00246675 W
                Gate Leakage = 0.00038992 W
                Runtime Dynamic = 0.116559 W

              Floating Point RF:
                Area = 0.208131 mm^2
                Peak Dynamic = 0.0017862 W
                Subthreshold Leakage = 0.00399698 W
                Subthreshold Leakage with power gating = 0.00176968 W
                Gate Leakage = 0.000232788 W
                Runtime Dynamic = 0.0157605 W

          Instruction Scheduler:
            Area = 2.17927 mm^2
            Peak Dynamic = 4.84781 W
            Subthreshold Leakage = 0.114878 W
            Subthreshold Leakage with power gating = 0.0641291 W
            Gate Leakage = 0.00730101 W
            Runtime Dynamic = 1.62135 W

              Instruction Window:
                Area = 1.00996 mm^2
                Peak Dynamic = 2.07911 W
                Subthreshold Leakage = 0.0800117 W
                Subthreshold Leakage with power gating = 0.0455351 W
                Gate Leakage = 0.00529112 W
                Runtime Dynamic = 0.752853 W

              FP Instruction Window:
                Area = 0.328073 mm^2
                Peak Dynamic = 1.20978 W
                Subthreshold Leakage = 0.017004 W
                Subthreshold Leakage with power gating = 0.00962066 W
                Gate Leakage = 0.00115349 W
                Runtime Dynamic = 0.434764 W

              ROB:
                Area = 0.841232 mm^2
                Peak Dynamic = 1.55892 W
                Subthreshold Leakage = 0.0178624 W
                Subthreshold Leakage with power gating = 0.00897339 W
                Gate Leakage = 0.000856399 W
                Runtime Dynamic = 0.433735 W

          Integer ALUs (Count: 6 ):
            Area = 0.47087 mm^2
            Peak Dynamic = 0.428297 W
            Subthreshold Leakage = 0.40222 W
            Subthreshold Leakage with power gating = 0.150833 W
            Gate Leakage = 0.0265291 W
            Runtime Dynamic = 0.411791 W

          Floating Point Units (FPUs) (Count: 2 ):
            Area = 4.6585 mm^2
            Peak Dynamic = 0.00945475 W
            Subthreshold Leakage = 0.994829 W
            Subthreshold Leakage with power gating = 0.373061 W
            Gate Leakage = 0.0656156 W
            Runtime Dynamic = 0.308192 W

          Complex ALUs (Mul/Div) (Count: 1 ):
            Area = 0.235435 mm^2
            Peak Dynamic = 0.0016806 W
            Subthreshold Leakage = 0.20111 W
            Subthreshold Leakage with power gating = 0.0754163 W
            Gate Leakage = 0.0132646 W
            Runtime Dynamic = 0.204009 W

          Results Broadcast Bus:
            Area Overhead = 0.0442632 mm^2
            Peak Dynamic = 0.277339 W
            Subthreshold Leakage = 0.0920413 W
            Subthreshold Leakage with power gating = 0.0345155 W
            Gate Leakage = 0.00607074 W
            Runtime Dynamic = 0.628929 W

    L2
    Area = 22.2273 mm^2
    Peak Dynamic = 0.0329742 W
    Subthreshold Leakage = 4.28281 W
    Subthreshold Leakage with power gating = 1.92539 W
    Gate Leakage = 0.0518439 W
    Runtime Dynamic = 0.00269428 W

*****************************************************************************************
Core:
      Area = 52.0221 mm^2
      Peak Dynamic = 25.4302 W
      Subthreshold Leakage = 9.78705 W
      Subthreshold Leakage with power gating = 4.15395 W
      Gate Leakage = 0.421566 W
      Runtime Dynamic = 7.55008 W

      Instruction Fetch Unit:
        Area = 7.57986 mm^2
        Peak Dynamic = 9.8549 W
        Subthreshold Leakage = 1.0522 W
        Subthreshold Leakage with power gating = 0.455066 W
        Gate Leakage = 0.0712372 W
        Runtime Dynamic = 2.42941 W

          Instruction Cache:
            Area = 4.86613 mm^2
            Peak Dynamic = 7.38107 W
            Subthreshold Leakage = 0.486629 W
            Subthreshold Leakage with power gating = 0.22691 W
            Gate Leakage = 0.0421203 W
            Runtime Dynamic = 2.02486 W

          Branch Target Buffer:
            Area = 0.64954 mm^2
            Peak Dynamic = 0.177867 W
            Subthreshold Leakage = 0.0811682 W
            Subthreshold Leakage with power gating = 0.0435357 W
            Gate Leakage = 0.00272758 W
            Runtime Dynamic = 0.0350002 W

          Branch Predictor:
            Area = 0.138516 mm^2
            Peak Dynamic = 0.0597838 W
            Subthreshold Leakage = 0.0199703 W
            Subthreshold Leakage with power gating = 0.0103282 W
            Gate Leakage = 0.000757657 W
            Runtime Dynamic = 0.0114169 W

              Global Predictor:
                Area = 0.0435221 mm^2
                Peak Dynamic = 0.0168831 W
                Subthreshold Leakage = 0.00759719 W
                Subthreshold Leakage with power gating = 0.0039236 W
                Gate Leakage = 0.000278362 W
                Runtime Dynamic = 0.003561 W

              Local Predictor:
              L1_Local Predictor:
                Area = 0.0257064 mm^2
                Peak Dynamic = 0.0142575 W
                Subthreshold Leakage = 0.00384344 W
                Subthreshold Leakage with power gating = 0.00198631 W
                Gate Leakage = 0.000154548 W
                Runtime Dynamic = 0.00307762 W

              L2_Local Predictor:
                Area = 0.0151917 mm^2
                Peak Dynamic = 0.00527447 W
                Subthreshold Leakage = 0.00181347 W
                Subthreshold Leakage with power gating = 0.000957045 W
                Gate Leakage = 8.00196e-05 W
                Runtime Dynamic = 0.00117827 W

              Chooser:
                Area = 0.0435221 mm^2
                Peak Dynamic = 0.0168831 W
                Subthreshold Leakage = 0.00759719 W
                Subthreshold Leakage with power gating = 0.0039236 W
                Gate Leakage = 0.000278362 W
                Runtime Dynamic = 0.003561 W

              RAS:
                Area = 0.0105732 mm^2
                Peak Dynamic = 0.0117602 W
                Subthreshold Leakage = 0.000932505 W
                Subthreshold Leakage with power gating = 0.000494733 W
                Gate Leakage = 4.63858e-05 W
                Runtime Dynamic = 0.00121725 W

          Instruction Buffer:
            Area = 0.0226323 mm^2
            Peak Dynamic = 0.606827 W
            Subthreshold Leakage = 0.00151885 W
            Subthreshold Leakage with power gating = 0.000701682 W
            Gate Leakage = 6.83558e-05 W
            Runtime Dynamic = 0.0814594 W

          Instruction Decoder:
            Area = 1.85799 mm^2
            Peak Dynamic = 1.37404 W
            Subthreshold Leakage = 0.442943 W
            Subthreshold Leakage with power gating = 0.166104 W
            Gate Leakage = 0.0222493 W
            Runtime Dynamic = 0.276673 W

      Renaming Unit:
        Area = 0.369768 mm^2
        Peak Dynamic = 4.56169 W
        Subthreshold Leakage = 0.070483 W
        Subthreshold Leakage with power gating = 0.0362779 W
        Gate Leakage = 0.00863632 W
        Runtime Dynamic = 0.185426 W

          Int Front End RAT:
            Area = 0.114751 mm^2
            Peak Dynamic = 0.86945 W
            Subthreshold Leakage = 0.00611897 W
            Subthreshold Leakage with power gating = 0.00348781 W
            Gate Leakage = 0.00038343 W
            Runtime Dynamic = 0.162957 W

          FP Front End RAT:
            Area = 0.168486 mm^2
            Peak Dynamic = 3.33511 W
            Subthreshold Leakage = 0.0437281 W
            Subthreshold Leakage with power gating = 0.024925 W
            Gate Leakage = 0.00489731 W
            Runtime Dynamic = 0.00623154 W

          Free List:
            Area = 0.0414755 mm^2
            Peak Dynamic = 0.0401324 W
            Subthreshold Leakage = 0.000670426 W
            Subthreshold Leakage with power gating = 0.000377987 W
            Gate Leakage = 4.15911e-05 W
            Runtime Dynamic = 0.0162369 W

      Load Store Unit:
        Area = 8.80969 mm^2
        Peak Dynamic = 4.85625 W
        Subthreshold Leakage = 0.591622 W
        Subthreshold Leakage with power gating = 0.283406 W
        Gate Leakage = 0.0351387 W
        Runtime Dynamic = 2.112 W

          Data Cache:
            Area = 6.84535 mm^2
            Peak Dynamic = 4.37492 W
            Subthreshold Leakage = 0.527675 W
            Subthreshold Leakage with power gating = 0.25085 W
            Gate Leakage = 0.0279261 W
            Runtime Dynamic = 1.50985 W

          LoadQ:
            Area = 0.0836782 mm^2
            Peak Dynamic = 0.101515 W
            Subthreshold Leakage = 0.00941961 W
            Subthreshold Leakage with power gating = 0.00536918 W
            Gate Leakage = 0.00059896 W
            Runtime Dynamic = 0.101515 W

          StoreQ:
            Area = 0.322079 mm^2
            Peak Dynamic = 0.25032 W
            Subthreshold Leakage = 0.0345621 W
            Subthreshold Leakage with power gating = 0.0197004 W
            Gate Leakage = 0.00329971 W
            Runtime Dynamic = 0.500639 W

      Memory Management Unit:
        Area = 0.434579 mm^2
        Peak Dynamic = 0.634252 W
        Subthreshold Leakage = 0.0769113 W
        Subthreshold Leakage with power gating = 0.0399462 W
        Gate Leakage = 0.00813591 W
        Runtime Dynamic = 0.245668 W

          Itlb:
            Area = 0.301552 mm^2
            Peak Dynamic = 0.322168 W
            Subthreshold Leakage = 0.0413758 W
            Subthreshold Leakage with power gating = 0.0235842 W
            Gate Leakage = 0.00393464 W
            Runtime Dynamic = 0.156634 W

          Dtlb:
            Area = 0.0879726 mm^2
            Peak Dynamic = 0.0888393 W
            Subthreshold Leakage = 0.0155699 W
            Subthreshold Leakage with power gating = 0.00887485 W
            Gate Leakage = 0.00088729 W
            Runtime Dynamic = 0.0890343 W

      Execution Unit:
        Area = 8.2042 mm^2
        Peak Dynamic = 5.49968 W
        Subthreshold Leakage = 1.83518 W
        Subthreshold Leakage with power gating = 0.709678 W
        Gate Leakage = 0.122718 W
        Runtime Dynamic = 2.57501 W

          Register Files:
            Area = 0.570804 mm^2
            Peak Dynamic = 0.0852538 W
            Subthreshold Leakage = 0.0101387 W
            Subthreshold Leakage with power gating = 0.00423643 W
            Gate Leakage = 0.000622708 W
            Runtime Dynamic = 0.0961942 W

              Integer RF:
                Area = 0.362673 mm^2
                Peak Dynamic = 0.0834676 W
                Subthreshold Leakage = 0.00614175 W
                Subthreshold Leakage with power gating = 0.00246675 W
                Gate Leakage = 0.00038992 W
                Runtime Dynamic = 0.0847365 W

              Floating Point RF:
                Area = 0.208131 mm^2
                Peak Dynamic = 0.0017862 W
                Subthreshold Leakage = 0.00399698 W
                Subthreshold Leakage with power gating = 0.00176968 W
                Gate Leakage = 0.000232788 W
                Runtime Dynamic = 0.0114577 W

          Instruction Scheduler:
            Area = 2.17927 mm^2
            Peak Dynamic = 4.84781 W
            Subthreshold Leakage = 0.114878 W
            Subthreshold Leakage with power gating = 0.0641291 W
            Gate Leakage = 0.00730101 W
            Runtime Dynamic = 1.17923 W

              Instruction Window:
                Area = 1.00996 mm^2
                Peak Dynamic = 2.07911 W
                Subthreshold Leakage = 0.0800117 W
                Subthreshold Leakage with power gating = 0.0455351 W
                Gate Leakage = 0.00529112 W
                Runtime Dynamic = 0.547314 W

              FP Instruction Window:
                Area = 0.328073 mm^2
                Peak Dynamic = 1.20978 W
                Subthreshold Leakage = 0.017004 W
                Subthreshold Leakage with power gating = 0.00962066 W
                Gate Leakage = 0.00115349 W
                Runtime Dynamic = 0.316067 W

              ROB:
                Area = 0.841232 mm^2
                Peak Dynamic = 1.55892 W
                Subthreshold Leakage = 0.0178624 W
                Subthreshold Leakage with power gating = 0.00897339 W
                Gate Leakage = 0.000856399 W
                Runtime Dynamic = 0.315852 W

          Integer ALUs (Count: 6 ):
            Area = 0.47087 mm^2
            Peak Dynamic = 0.310971 W
            Subthreshold Leakage = 0.40222 W
            Subthreshold Leakage with power gating = 0.150833 W
            Gate Leakage = 0.0265291 W
            Runtime Dynamic = 0.327626 W

          Floating Point Units (FPUs) (Count: 2 ):
            Area = 4.6585 mm^2
            Peak Dynamic = 0.00945475 W
            Subthreshold Leakage = 0.994829 W
            Subthreshold Leakage with power gating = 0.373061 W
            Gate Leakage = 0.0656156 W
            Runtime Dynamic = 0.308192 W

          Complex ALUs (Mul/Div) (Count: 1 ):
            Area = 0.235435 mm^2
            Peak Dynamic = 0.0016806 W
            Subthreshold Leakage = 0.20111 W
            Subthreshold Leakage with power gating = 0.0754163 W
            Gate Leakage = 0.0132646 W
            Runtime Dynamic = 0.204009 W

          Results Broadcast Bus:
            Area Overhead = 0.0442632 mm^2
            Peak Dynamic = 0.202152 W
            Subthreshold Leakage = 0.0920413 W
            Subthreshold Leakage with power gating = 0.0345155 W
            Gate Leakage = 0.00607074 W
            Runtime Dynamic = 0.459757 W

    L2
    Area = 22.2273 mm^2
    Peak Dynamic = 0.0234704 W
    Subthreshold Leakage = 4.28281 W
    Subthreshold Leakage with power gating = 1.92539 W
    Gate Leakage = 0.0518439 W
    Runtime Dynamic = 0.00257328 W

*****************************************************************************************
Core:
      Area = 52.0221 mm^2
      Peak Dynamic = 27.0718 W
      Subthreshold Leakage = 9.78705 W
      Subthreshold Leakage with power gating = 4.15395 W
      Gate Leakage = 0.421566 W
      Runtime Dynamic = 8.47365 W

      Instruction Fetch Unit:
        Area = 7.57986 mm^2
        Peak Dynamic = 10.8708 W
        Subthreshold Leakage = 1.0522 W
        Subthreshold Leakage with power gating = 0.455066 W
        Gate Leakage = 0.0712372 W
        Runtime Dynamic = 2.76041 W

          Instruction Cache:
            Area = 4.86613 mm^2
            Peak Dynamic = 8.36303 W
            Subthreshold Leakage = 0.486629 W
            Subthreshold Leakage with power gating = 0.22691 W
            Gate Leakage = 0.0421203 W
            Runtime Dynamic = 2.3019 W

          Branch Target Buffer:
            Area = 0.64954 mm^2
            Peak Dynamic = 0.177867 W
            Subthreshold Leakage = 0.0811682 W
            Subthreshold Leakage with power gating = 0.0435357 W
            Gate Leakage = 0.00272758 W
            Runtime Dynamic = 0.039765 W

          Branch Predictor:
            Area = 0.138516 mm^2
            Peak Dynamic = 0.0597838 W
            Subthreshold Leakage = 0.0199703 W
            Subthreshold Leakage with power gating = 0.0103282 W
            Gate Leakage = 0.000757657 W
            Runtime Dynamic = 0.0129668 W

              Global Predictor:
                Area = 0.0435221 mm^2
                Peak Dynamic = 0.0168831 W
                Subthreshold Leakage = 0.00759719 W
                Subthreshold Leakage with power gating = 0.0039236 W
                Gate Leakage = 0.000278362 W
                Runtime Dynamic = 0.0040456 W

              Local Predictor:
              L1_Local Predictor:
                Area = 0.0257064 mm^2
                Peak Dynamic = 0.0142575 W
                Subthreshold Leakage = 0.00384344 W
                Subthreshold Leakage with power gating = 0.00198631 W
                Gate Leakage = 0.000154548 W
                Runtime Dynamic = 0.00349639 W

              L2_Local Predictor:
                Area = 0.0151917 mm^2
                Peak Dynamic = 0.00527447 W
                Subthreshold Leakage = 0.00181347 W
                Subthreshold Leakage with power gating = 0.000957045 W
                Gate Leakage = 8.00196e-05 W
                Runtime Dynamic = 0.00133857 W

              Chooser:
                Area = 0.0435221 mm^2
                Peak Dynamic = 0.0168831 W
                Subthreshold Leakage = 0.00759719 W
                Subthreshold Leakage with power gating = 0.0039236 W
                Gate Leakage = 0.000278362 W
                Runtime Dynamic = 0.0040456 W

              RAS:
                Area = 0.0105732 mm^2
                Peak Dynamic = 0.0117602 W
                Subthreshold Leakage = 0.000932505 W
                Subthreshold Leakage with power gating = 0.000494733 W
                Gate Leakage = 4.63858e-05 W
                Runtime Dynamic = 0.00137918 W

          Instruction Buffer:
            Area = 0.0226323 mm^2
            Peak Dynamic = 0.606827 W
            Subthreshold Leakage = 0.00151885 W
            Subthreshold Leakage with power gating = 0.000701682 W
            Gate Leakage = 6.83558e-05 W
            Runtime Dynamic = 0.0922966 W

          Instruction Decoder:
            Area = 1.85799 mm^2
            Peak Dynamic = 1.37404 W
            Subthreshold Leakage = 0.442943 W
            Subthreshold Leakage with power gating = 0.166104 W
            Gate Leakage = 0.0222493 W
            Runtime Dynamic = 0.313481 W
[...]
                Gate Leakage = 0.000278362 W
                Runtime Dynamic = 0.0045588 W

              RAS:
                Area = 0.0105732 mm^2
                Peak Dynamic = 0.0117602 W
                Subthreshold Leakage = 0.000932505 W
                Subthreshold Leakage with power gating = 0.000494733 W
                Gate Leakage = 4.63858e-05 W
                Runtime Dynamic = 0.00155067 W

          Instruction Buffer:
            Area = 0.0226323 mm^2
            Peak Dynamic = 0.606827 W
            Subthreshold Leakage = 0.00151885 W
            Subthreshold Leakage with power gating = 0.000701682 W
            Gate Leakage = 6.83558e-05 W
            Runtime Dynamic = 0.103772 W

          Instruction Decoder:
            Area = 1.85799 mm^2
            Peak Dynamic = 1.37404 W
            Subthreshold Leakage = 0.442943 W
            Subthreshold Leakage with power gating = 0.166104 W
            Gate Leakage = 0.0222493 W
            Runtime Dynamic = 0.352457 W

      Renaming Unit:
        Area = 0.369768 mm^2
        Peak Dynamic = 4.56169 W
        Subthreshold Leakage = 0.070483 W
        Subthreshold Leakage with power gating = 0.0362779 W
        Gate Leakage = 0.00863632 W
        Runtime Dynamic = 0.234475 W

          Int Front End RAT:
            Area = 0.114751 mm^2
            Peak Dynamic = 0.86945 W
            Subthreshold Leakage = 0.00611897 W
            Subthreshold Leakage with power gating = 0.00348781 W
            Gate Leakage = 0.00038343 W
            Runtime Dynamic = 0.207579 W

          FP Front End RAT:
            Area = 0.168486 mm^2
            Peak Dynamic = 3.33511 W
            Subthreshold Leakage = 0.0437281 W
            Subthreshold Leakage with power gating = 0.024925 W
            Gate Leakage = 0.00489731 W
            Runtime Dynamic = 0.00623154 W

          Free List:
            Area = 0.0414755 mm^2
            Peak Dynamic = 0.0401324 W
            Subthreshold Leakage = 0.000670426 W
            Subthreshold Leakage with power gating = 0.000377987 W
            Gate Leakage = 4.15911e-05 W
            Runtime Dynamic = 0.0206639 W

      Load Store Unit:
        Area = 8.80969 mm^2
        Peak Dynamic = 5.83353 W
        Subthreshold Leakage = 0.591622 W
        Subthreshold Leakage with power gating = 0.283406 W
        Gate Leakage = 0.0351387 W
        Runtime Dynamic = 2.68177 W

          Data Cache:
            Area = 6.84535 mm^2
            Peak Dynamic = 5.22223 W
            Subthreshold Leakage = 0.527675 W
            Subthreshold Leakage with power gating = 0.25085 W
            Gate Leakage = 0.0279261 W
            Runtime Dynamic = 1.91701 W

          LoadQ:
            Area = 0.0836782 mm^2
            Peak Dynamic = 0.128928 W
            Subthreshold Leakage = 0.00941961 W
            Subthreshold Leakage with power gating = 0.00536918 W
            Gate Leakage = 0.00059896 W
            Runtime Dynamic = 0.128928 W

          StoreQ:
            Area = 0.322079 mm^2
            Peak Dynamic = 0.317914 W
            Subthreshold Leakage = 0.0345621 W
            Subthreshold Leakage with power gating = 0.0197004 W
            Gate Leakage = 0.00329971 W
            Runtime Dynamic = 0.635828 W

      Memory Management Unit:
        Area = 0.434579 mm^2
        Peak Dynamic = 0.753552 W
        Subthreshold Leakage = 0.0769113 W
        Subthreshold Leakage with power gating = 0.0399462 W
        Gate Leakage = 0.00813591 W
        Runtime Dynamic = 0.313836 W

          Itlb:
            Area = 0.301552 mm^2
            Peak Dynamic = 0.399995 W
            Subthreshold Leakage = 0.0413758 W
            Subthreshold Leakage with power gating = 0.0235842 W
            Gate Leakage = 0.00393464 W
            Runtime Dynamic = 0.200757 W

          Dtlb:
            Area = 0.0879726 mm^2
            Peak Dynamic = 0.112829 W
            Subthreshold Leakage = 0.0155699 W
            Subthreshold Leakage with power gating = 0.00887485 W
            Gate Leakage = 0.00088729 W
            Runtime Dynamic = 0.113078 W

      Execution Unit:
        Area = 8.2042 mm^2
        Peak Dynamic = 5.67444 W
        Subthreshold Leakage = 1.83518 W
        Subthreshold Leakage with power gating = 0.709678 W
        Gate Leakage = 0.122718 W
        Runtime Dynamic = 3.10861 W

          Register Files:
            Area = 0.570804 mm^2
            Peak Dynamic = 0.107948 W
            Subthreshold Leakage = 0.0101387 W
            Subthreshold Leakage with power gating = 0.00423643 W
            Gate Leakage = 0.000622708 W
            Runtime Dynamic = 0.122543 W

              Integer RF:
                Area = 0.362673 mm^2
                Peak Dynamic = 0.106162 W
                Subthreshold Leakage = 0.00614175 W
                Subthreshold Leakage with power gating = 0.00246675 W
                Gate Leakage = 0.00038992 W
                Runtime Dynamic = 0.107947 W

              Floating Point RF:
                Area = 0.208131 mm^2
                Peak Dynamic = 0.0017862 W
                Subthreshold Leakage = 0.00399698 W
                Subthreshold Leakage with power gating = 0.00176968 W
                Gate Leakage = 0.000232788 W
                Runtime Dynamic = 0.0145961 W

          Instruction Scheduler:
            Area = 2.17927 mm^2
            Peak Dynamic = 4.84781 W
            Subthreshold Leakage = 0.114878 W
            Subthreshold Leakage with power gating = 0.0641291 W
            Gate Leakage = 0.00730101 W
            Runtime Dynamic = 1.50171 W

              Instruction Window:
                Area = 1.00996 mm^2
                Peak Dynamic = 2.07911 W
                Subthreshold Leakage = 0.0800117 W
                Subthreshold Leakage with power gating = 0.0455351 W
                Gate Leakage = 0.00529112 W
                Runtime Dynamic = 0.697231 W

              FP Instruction Window:
                Area = 0.328073 mm^2
                Peak Dynamic = 1.20978 W
                Subthreshold Leakage = 0.017004 W
                Subthreshold Leakage with power gating = 0.00962066 W
                Gate Leakage = 0.00115349 W
                Runtime Dynamic = 0.402642 W

              ROB:
                Area = 0.841232 mm^2
                Peak Dynamic = 1.55892 W
                Subthreshold Leakage = 0.0178624 W
                Subthreshold Leakage with power gating = 0.00897339 W
                Gate Leakage = 0.000856399 W
                Runtime Dynamic = 0.401833 W

          Integer ALUs (Count: 6 ):
            Area = 0.47087 mm^2
            Peak Dynamic = 0.396545 W
            Subthreshold Leakage = 0.40222 W
            Subthreshold Leakage with power gating = 0.150833 W
            Gate Leakage = 0.0265291 W
            Runtime Dynamic = 0.389013 W

          Floating Point Units (FPUs) (Count: 2 ):
            Area = 4.6585 mm^2
            Peak Dynamic = 0.00945475 W
            Subthreshold Leakage = 0.994829 W
            Subthreshold Leakage with power gating = 0.373061 W
            Gate Leakage = 0.0656156 W
            Runtime Dynamic = 0.308192 W

          Complex ALUs (Mul/Div) (Count: 1 ):
            Area = 0.235435 mm^2
            Peak Dynamic = 0.0016806 W
            Subthreshold Leakage = 0.20111 W
            Subthreshold Leakage with power gating = 0.0754163 W
            Gate Leakage = 0.0132646 W
            Runtime Dynamic = 0.204009 W

          Results Broadcast Bus:
            Area Overhead = 0.0442632 mm^2
            Peak Dynamic = 0.256991 W
            Subthreshold Leakage = 0.0920413 W
            Subthreshold Leakage with power gating = 0.0345155 W
            Gate Leakage = 0.00607074 W
            Runtime Dynamic = 0.583146 W

    L2
    Area = 22.2273 mm^2
    Peak Dynamic = 0.0300267 W
    Subthreshold Leakage = 4.28281 W
    Subthreshold Leakage with power gating = 1.92539 W
    Gate Leakage = 0.0518439 W
    Runtime Dynamic = 0.0026279 W

*****************************************************************************************
Core:
      Area = 52.0221 mm^2
      Peak Dynamic = 28.9273 W
      Subthreshold Leakage = 9.78705 W
      Subthreshold Leakage with power gating = 4.15395 W
      Gate Leakage = 0.421566 W
      Runtime Dynamic = 10.0455 W

      Instruction Fetch Unit:
        Area = 7.57986 mm^2
        Peak Dynamic = 11.6996 W
        Subthreshold Leakage = 1.0522 W
        Subthreshold Leakage with power gating = 0.455066 W
        Gate Leakage = 0.0712372 W
        Runtime Dynamic = 3.32347 W

          Instruction Cache:
            Area = 4.86613 mm^2
            Peak Dynamic = 9.16413 W
            Subthreshold Leakage = 0.486629 W
            Subthreshold Leakage with power gating = 0.22691 W
            Gate Leakage = 0.0421203 W
            Runtime Dynamic = 2.77316 W

          Branch Target Buffer:
            Area = 0.64954 mm^2
            Peak Dynamic = 0.177867 W
            Subthreshold Leakage = 0.0811682 W
            Subthreshold Leakage with power gating = 0.0435357 W
            Gate Leakage = 0.00272758 W
            Runtime Dynamic = 0.0478704 W

          Branch Predictor:
            Area = 0.138516 mm^2
            Peak Dynamic = 0.0597838 W
            Subthreshold Leakage = 0.0199703 W
            Subthreshold Leakage with power gating = 0.0103282 W
            Gate Leakage = 0.000757657 W
            Runtime Dynamic = 0.0156049 W

              Global Predictor:
                Area = 0.0435221 mm^2
                Peak Dynamic = 0.0168831 W
                Subthreshold Leakage = 0.00759719 W
                Subthreshold Leakage with power gating = 0.0039236 W
                Gate Leakage = 0.000278362 W
                Runtime Dynamic = 0.00487044 W

              Local Predictor:
              L1_Local Predictor:
                Area = 0.0257064 mm^2
                Peak Dynamic = 0.0142575 W
                Subthreshold Leakage = 0.00384344 W
                Subthreshold Leakage with power gating = 0.00198631 W
                Gate Leakage = 0.000154548 W
                Runtime Dynamic = 0.00420931 W

              L2_Local Predictor:
                Area = 0.0151917 mm^2
                Peak Dynamic = 0.00527447 W
                Subthreshold Leakage = 0.00181347 W
                Subthreshold Leakage with power gating = 0.000957045 W
                Gate Leakage = 8.00196e-05 W
                Runtime Dynamic = 0.00161154 W

              Chooser:
                Area = 0.0435221 mm^2
                Peak Dynamic = 0.0168831 W
                Subthreshold Leakage = 0.00759719 W
                Subthreshold Leakage with power gating = 0.0039236 W
                Gate Leakage = 0.000278362 W
                Runtime Dynamic = 0.00487044 W

              RAS:
                Area = 0.0105732 mm^2
                Peak Dynamic = 0.0117602 W
                Subthreshold Leakage = 0.000932505 W
                Subthreshold Leakage with power gating = 0.000494733 W
                Gate Leakage = 4.63858e-05 W
                Runtime Dynamic = 0.00165467 W

          Instruction Buffer:
            Area = 0.0226323 mm^2
            Peak Dynamic = 0.606827 W
            Subthreshold Leakage = 0.00151885 W
            Subthreshold Leakage with power gating = 0.000701682 W
            Gate Leakage = 6.83558e-05 W
            Runtime Dynamic = 0.110732 W

          Instruction Decoder:
            Area = 1.85799 mm^2
            Peak Dynamic = 1.37404 W
            Subthreshold Leakage = 0.442943 W
            Subthreshold Leakage with power gating = 0.166104 W
            Gate Leakage = 0.0222493 W
            Runtime Dynamic = 0.376097 W

      Renaming Unit:
        Area = 0.369768 mm^2
        Peak Dynamic = 4.56169 W
        Subthreshold Leakage = 0.070483 W
        Subthreshold Leakage with power gating = 0.0362779 W
        Gate Leakage = 0.00863632 W
        Runtime Dynamic = 0.249775 W

          Int Front End RAT:
            Area = 0.114751 mm^2
            Peak Dynamic = 0.86945 W
            Subthreshold Leakage = 0.00611897 W
            Subthreshold Leakage with power gating = 0.00348781 W
            Gate Leakage = 0.00038343 W
            Runtime Dynamic = 0.221499 W

          FP Front End RAT:
            Area = 0.168486 mm^2
            Peak Dynamic = 3.33511 W
            Subthreshold Leakage = 0.0437281 W
            Subthreshold Leakage with power gating = 0.024925 W
            Gate Leakage = 0.00489731 W
            Runtime Dynamic = 0.00623154 W

          Free List:
            Area = 0.0414755 mm^2
            Peak Dynamic = 0.0401324 W
            Subthreshold Leakage = 0.000670426 W
            Subthreshold Leakage with power gating = 0.000377987 W
            Gate Leakage = 4.15911e-05 W
            Runtime Dynamic = 0.0220448 W

      Load Store Unit:
        Area = 8.80969 mm^2
        Peak Dynamic = 6.13838 W
        Subthreshold Leakage = 0.591622 W
        Subthreshold Leakage with power gating = 0.283406 W
        Gate Leakage = 0.0351387 W
        Runtime Dynamic = 2.85948 W

          Data Cache:
            Area = 6.84535 mm^2
            Peak Dynamic = 5.48653 W
            Subthreshold Leakage = 0.527675 W
            Subthreshold Leakage with power gating = 0.25085 W
            Gate Leakage = 0.0279261 W
            Runtime Dynamic = 2.044 W

          LoadQ:
            Area = 0.0836782 mm^2
            Peak Dynamic = 0.137479 W
            Subthreshold Leakage = 0.00941961 W
            Subthreshold Leakage with power gating = 0.00536918 W
            Gate Leakage = 0.00059896 W
            Runtime Dynamic = 0.137479 W

          StoreQ:
            Area = 0.322079 mm^2
            Peak Dynamic = 0.338999 W
            Subthreshold Leakage = 0.0345621 W
            Subthreshold Leakage with power gating = 0.0197004 W
            Gate Leakage = 0.00329971 W
            Runtime Dynamic = 0.677998 W

      Memory Management Unit:
        Area = 0.434579 mm^2
        Peak Dynamic = 0.766489 W
        Subthreshold Leakage = 0.0769113 W
        Subthreshold Leakage with power gating = 0.0399462 W
        Gate Leakage = 0.00813591 W
        Runtime Dynamic = 0.335098 W

          Itlb:
            Area = 0.301552 mm^2
            Peak Dynamic = 0.399995 W
            Subthreshold Leakage = 0.0413758 W
            Subthreshold Leakage with power gating = 0.0235842 W
            Gate Leakage = 0.00393464 W
            Runtime Dynamic = 0.214519 W

          Dtlb:
            Area = 0.0879726 mm^2
            Peak Dynamic = 0.120312 W
            Subthreshold Leakage = 0.0155699 W
            Subthreshold Leakage with power gating = 0.00887485 W
            Gate Leakage = 0.00088729 W
            Runtime Dynamic = 0.120579 W

      Execution Unit:
        Area = 8.2042 mm^2
        Peak Dynamic = 5.72896 W
        Subthreshold Leakage = 1.83518 W
        Subthreshold Leakage with power gating = 0.709678 W
        Gate Leakage = 0.122718 W
        Runtime Dynamic = 3.27506 W

          Register Files:
            Area = 0.570804 mm^2
            Peak Dynamic = 0.115027 W
            Subthreshold Leakage = 0.0101387 W
            Subthreshold Leakage with power gating = 0.00423643 W
            Gate Leakage = 0.000622708 W
            Runtime Dynamic = 0.130762 W

              Integer RF:
                Area = 0.362673 mm^2
                Peak Dynamic = 0.113241 W
                Subthreshold Leakage = 0.00614175 W
                Subthreshold Leakage with power gating = 0.00246675 W
                Gate Leakage = 0.00038992 W
                Runtime Dynamic = 0.115187 W

              Floating Point RF:
                Area = 0.208131 mm^2
                Peak Dynamic = 0.0017862 W
                Subthreshold Leakage = 0.00399698 W
                Subthreshold Leakage with power gating = 0.00176968 W
                Gate Leakage = 0.000232788 W
                Runtime Dynamic = 0.0155751 W

          Instruction Scheduler:
            Area = 2.17927 mm^2
            Peak Dynamic = 4.84781 W
            Subthreshold Leakage = 0.114878 W
            Subthreshold Leakage with power gating = 0.0641291 W
            Gate Leakage = 0.00730101 W
            Runtime Dynamic = 1.6023 W

              Instruction Window:
                Area = 1.00996 mm^2
                Peak Dynamic = 2.07911 W
                Subthreshold Leakage = 0.0800117 W
                Subthreshold Leakage with power gating = 0.0455351 W
                Gate Leakage = 0.00529112 W
                Runtime Dynamic = 0.743994 W

              FP Instruction Window:
                Area = 0.328073 mm^2
                Peak Dynamic = 1.20978 W
                Subthreshold Leakage = 0.017004 W
                Subthreshold Leakage with power gating = 0.00962066 W
                Gate Leakage = 0.00115349 W
                Runtime Dynamic = 0.429648 W

              ROB:
                Area = 0.841232 mm^2
                Peak Dynamic = 1.55892 W
                Subthreshold Leakage = 0.0178624 W
                Subthreshold Leakage with power gating = 0.00897339 W
                Gate Leakage = 0.000856399 W
                Runtime Dynamic = 0.428654 W

          Integer ALUs (Count: 6 ):
            Area = 0.47087 mm^2
            Peak Dynamic = 0.42324 W
            Subthreshold Leakage = 0.40222 W
            Subthreshold Leakage with power gating = 0.150833 W
            Gate Leakage = 0.0265291 W
            Runtime Dynamic = 0.408163 W

          Floating Point Units (FPUs) (Count: 2 ):
            Area = 4.6585 mm^2
            Peak Dynamic = 0.00945475 W
            Subthreshold Leakage = 0.994829 W
            Subthreshold Leakage with power gating = 0.373061 W
            Gate Leakage = 0.0656156 W
            Runtime Dynamic = 0.308192 W

          Complex ALUs (Mul/Div) (Count: 1 ):
            Area = 0.235435 mm^2
            Peak Dynamic = 0.0016806 W
            Subthreshold Leakage = 0.20111 W
            Subthreshold Leakage with power gating = 0.0754163 W
            Gate Leakage = 0.0132646 W
            Runtime Dynamic = 0.204009 W

          Results Broadcast Bus:
            Area Overhead = 0.0442632 mm^2
            Peak Dynamic = 0.274098 W
            Subthreshold Leakage = 0.0920413 W
            Subthreshold Leakage with power gating = 0.0345155 W
            Gate Leakage = 0.00607074 W
            Runtime Dynamic = 0.621637 W

    L2
    Area = 22.2273 mm^2
    Peak Dynamic = 0.0321754 W
    Subthreshold Leakage = 4.28281 W
    Subthreshold Leakage with power gating = 1.92539 W
    Gate Leakage = 0.0518439 W
    Runtime Dynamic = 0.0026264 W

*****************************************************************************************
      L3
      Area = 61.9075 mm^2
      Peak Dynamic = 0.278386 W
      Subthreshold Leakage = 6.80085 W
      Subthreshold Leakage with power gating = 3.32364 W
      Gate Leakage = 0.0484137 W
      Runtime Dynamic = 0.0833885 W

*****************************************************************************************
      L3
      Area = 61.9075 mm^2
      Peak Dynamic = 0.28307 W
      Subthreshold Leakage = 6.80085 W
      Subthreshold Leakage with power gating = 3.32364 W
      Gate Leakage = 0.0484137 W
      Runtime Dynamic = 0.087901 W

*****************************************************************************************
BUSES
      Area = 5.83965 mm^2
      Peak Dynamic = 2.14129 W
      Subthreshold Leakage = 0.163365 W
      Subthreshold Leakage with power gating = 0.0612617 W
      Gate Leakage = 0.0156661 W
      Runtime Dynamic = 0.285142 W

      Bus: 
        Area = 5.83965 mm^2
        Peak Dynamic = 2.14129 W
        Subthreshold Leakage = 0.163365 W
        Subthreshold Leakage with power gating = 0.0612617 W
        Gate Leakage = 0.0156661 W
        Runtime Dynamic = 0.285142 W

*****************************************************************************************
